<NUMBER OF NODES> 	10538
<NUMBER OF LINKS> 	28178
<END OF METADATA>		


~ 	Tail 	Head 	: 	Volume 	Cost 	; 
	1 	10536 	: 	0 	inf 	; 
	1 	10538 	: 	935.933 	3.61809 	; 
	2 	3 	: 	0 	inf 	; 
	2 	24 	: 	426.75 	4.75354 	; 
	3 	2 	: 	426.75 	2.35808 	; 
	3 	3180 	: 	0 	inf 	; 
	4 	5 	: 	0 	inf 	; 
	4 	9 	: 	615.335 	16.8529 	; 
	5 	4 	: 	615.335 	4.10341 	; 
	5 	10528 	: 	0 	inf 	; 
	6 	7 	: 	1041.65 	4.10532 	; 
	6 	10491 	: 	0 	inf 	; 
	7 	6 	: 	0 	inf 	; 
	7 	3180 	: 	1041.65 	9.64997 	; 
	8 	9 	: 	0 	inf 	; 
	8 	44 	: 	0 	inf 	; 
	8 	4507 	: 	3315.47 	11.8762 	; 
	9 	4 	: 	0 	inf 	; 
	9 	8 	: 	3183.47 	12.0991 	; 
	9 	10 	: 	0 	inf 	; 
	10 	9 	: 	2568.13 	11.2714 	; 
	10 	11 	: 	0 	inf 	; 
	11 	10 	: 	2568.13 	2.86153 	; 
	11 	12 	: 	0 	inf 	; 
	12 	11 	: 	2568.13 	5.87727 	; 
	12 	13 	: 	0 	inf 	; 
	13 	12 	: 	2568.13 	1.64242 	; 
	13 	14 	: 	0 	inf 	; 
	14 	13 	: 	2568.13 	10.0316 	; 
	14 	15 	: 	0 	inf 	; 
	14 	10528 	: 	277.2 	16.2838 	; 
	15 	14 	: 	2845.33 	1.5766 	; 
	15 	16 	: 	0 	inf 	; 
	16 	15 	: 	2845.33 	8.97764 	; 
	16 	17 	: 	0 	inf 	; 
	16 	32 	: 	2140.9 	14.2763 	; 
	17 	16 	: 	4986.23 	2.04142 	; 
	17 	547 	: 	0 	inf 	; 
	18 	19 	: 	5591.48 	5.93579 	; 
	18 	10490 	: 	0 	inf 	; 
	19 	18 	: 	0 	inf 	; 
	19 	20 	: 	5591.48 	1.43958 	; 
	20 	19 	: 	0 	inf 	; 
	20 	21 	: 	5591.48 	7.49469 	; 
	21 	20 	: 	0 	inf 	; 
	21 	22 	: 	5806.28 	3.2671 	; 
	21 	10526 	: 	0 	inf 	; 
	22 	21 	: 	0 	inf 	; 
	22 	23 	: 	5806.28 	1.65831 	; 
	23 	22 	: 	0 	inf 	; 
	23 	24 	: 	5806.28 	3.39202 	; 
	24 	2 	: 	0 	inf 	; 
	24 	23 	: 	0 	inf 	; 
	24 	25 	: 	6233.03 	4.55811 	; 
	25 	24 	: 	0 	inf 	; 
	25 	26 	: 	6233.03 	2.06845 	; 
	26 	25 	: 	0 	inf 	; 
	26 	3362 	: 	6233.03 	3.4624 	; 
	27 	28 	: 	0 	inf 	; 
	27 	10526 	: 	214.8 	5.39928 	; 
	28 	27 	: 	214.8 	4.62687 	; 
	28 	29 	: 	0 	inf 	; 
	29 	28 	: 	214.8 	3.97843 	; 
	29 	9123 	: 	0 	inf 	; 
	30 	70 	: 	0 	inf 	; 
	30 	9123 	: 	214.8 	2.47922 	; 
	31 	10489 	: 	0 	inf 	; 
	31 	10535 	: 	1637.68 	10.661 	; 
	32 	16 	: 	0 	inf 	; 
	32 	10525 	: 	2140.9 	7.96185 	; 
	33 	10525 	: 	0 	inf 	; 
	33 	10527 	: 	418.833 	12.2171 	; 
	34 	35 	: 	418.833 	6.65243 	; 
	34 	10486 	: 	0 	inf 	; 
	35 	34 	: 	0 	inf 	; 
	35 	10485 	: 	418.833 	3.55461 	; 
	36 	37 	: 	364.067 	9.54966 	; 
	36 	55 	: 	296.8 	0.723734 	; 
	36 	56 	: 	0 	3.05196 	; 
	36 	9122 	: 	0 	inf 	; 
	37 	36 	: 	0 	inf 	; 
	37 	9117 	: 	364.067 	3.16339 	; 
	38 	3709 	: 	877.2 	5.87222 	; 
	38 	9119 	: 	0 	inf 	; 
	39 	40 	: 	0 	inf 	; 
	39 	9121 	: 	2777.81 	11.5345 	; 
	40 	39 	: 	2777.81 	2.57091 	; 
	40 	41 	: 	0 	inf 	; 
	41 	40 	: 	2777.81 	20.636 	; 
	41 	42 	: 	0 	inf 	; 
	42 	41 	: 	2777.81 	1.94816 	; 
	42 	10532 	: 	0 	inf 	; 
	43 	10532 	: 	2777.81 	3.14446 	; 
	43 	10534 	: 	0 	inf 	; 
	44 	8 	: 	132 	32.8253 	; 
	44 	45 	: 	0 	inf 	; 
	45 	44 	: 	132 	9.72811 	; 
	45 	10216 	: 	0 	inf 	; 
	46 	47 	: 	0 	inf 	; 
	46 	10216 	: 	132 	11.8703 	; 
	47 	46 	: 	132 	2.81424 	; 
	47 	10534 	: 	0 	inf 	; 
	48 	51 	: 	1819.27 	3.77609 	; 
	48 	8774 	: 	0 	inf 	; 
	49 	50 	: 	0 	inf 	; 
	49 	77 	: 	0 	inf 	; 
	49 	3454 	: 	6081.2 	11.0746 	; 
	50 	49 	: 	1819.27 	5.72529 	; 
	50 	51 	: 	0 	inf 	; 
	51 	48 	: 	0 	inf 	; 
	51 	50 	: 	1819.27 	13.6681 	; 
	52 	8774 	: 	97.2 	1.7726 	; 
	52 	10492 	: 	0 	inf 	; 
	53 	10530 	: 	1174 	4.64664 	; 
	53 	10531 	: 	875.1 	0.75172 	; 
	54 	55 	: 	364.067 	4.0402 	; 
	54 	10531 	: 	296.8 	0.836104 	; 
	55 	36 	: 	364.067 	0.724798 	; 
	55 	54 	: 	296.8 	4.03427 	; 
	56 	36 	: 	0 	3.05196 	; 
	57 	3457 	: 	9235.04 	20.2217 	; 
	57 	10535 	: 	0 	inf 	; 
	57 	10537 	: 	0 	inf 	; 
	58 	59 	: 	0 	inf 	; 
	58 	10485 	: 	0 	inf 	; 
	58 	10535 	: 	5922.13 	5.22089 	; 
	59 	58 	: 	5503.3 	2.34368 	; 
	59 	60 	: 	0 	inf 	; 
	60 	59 	: 	5503.3 	2.44171 	; 
	60 	61 	: 	0 	inf 	; 
	61 	60 	: 	5503.3 	4.46761 	; 
	61 	62 	: 	0 	inf 	; 
	62 	61 	: 	5503.3 	1.87732 	; 
	62 	63 	: 	0 	inf 	; 
	63 	62 	: 	5503.3 	7.4068 	; 
	63 	64 	: 	0 	inf 	; 
	63 	3710 	: 	0 	inf 	; 
	64 	63 	: 	4992.27 	3.81041 	; 
	64 	65 	: 	0 	inf 	; 
	65 	64 	: 	4992.27 	13.2944 	; 
	65 	66 	: 	0 	inf 	; 
	66 	65 	: 	4992.27 	1.93109 	; 
	66 	9118 	: 	0 	inf 	; 
	67 	68 	: 	0 	inf 	; 
	67 	9118 	: 	5869.47 	6.7444 	; 
	68 	67 	: 	5869.47 	3.74832 	; 
	68 	8102 	: 	0 	inf 	; 
	68 	10533 	: 	2909.81 	6.41129 	; 
	69 	70 	: 	4409.47 	1.92414 	; 
	69 	10536 	: 	0 	inf 	; 
	70 	30 	: 	214.8 	6.07032 	; 
	70 	69 	: 	0 	inf 	; 
	70 	71 	: 	4194.67 	4.25174 	; 
	71 	70 	: 	0 	inf 	; 
	71 	72 	: 	4194.67 	1.75155 	; 
	72 	71 	: 	0 	inf 	; 
	72 	9122 	: 	4194.67 	7.64547 	; 
	73 	74 	: 	3897.87 	11.5088 	; 
	73 	9122 	: 	0 	inf 	; 
	74 	73 	: 	0 	inf 	; 
	74 	75 	: 	3897.87 	1.94266 	; 
	75 	74 	: 	0 	inf 	; 
	75 	76 	: 	3897.87 	4.31613 	; 
	76 	75 	: 	0 	inf 	; 
	76 	77 	: 	4261.93 	4.36141 	; 
	76 	9117 	: 	0 	inf 	; 
	77 	49 	: 	4261.93 	3.85016 	; 
	77 	76 	: 	0 	inf 	; 
	78 	3688 	: 	0 	inf 	; 
	78 	9079 	: 	0 	1.41799 	; 
	78 	9081 	: 	630.264 	9.54787 	; 
	79 	8646 	: 	0 	17.8353 	; 
	79 	9079 	: 	0 	inf 	; 
	79 	9080 	: 	0 	16.9682 	; 
	80 	219 	: 	704.771 	1.72529 	; 
	80 	3371 	: 	167.421 	11.4973 	; 
	81 	83 	: 	0 	17.5532 	; 
	82 	83 	: 	0 	8.58476 	; 
	83 	81 	: 	0 	17.5532 	; 
	83 	82 	: 	0 	8.58476 	; 
	83 	3372 	: 	812.061 	1.91214 	; 
	83 	4300 	: 	463.867 	5.02786 	; 
	84 	3539 	: 	100 	99.1096 	; 
	84 	4379 	: 	48 	3.7459 	; 
	85 	3350 	: 	66 	55.8106 	; 
	85 	4379 	: 	104 	4.13231 	; 
	86 	5962 	: 	0 	inf 	; 
	86 	9622 	: 	3381.04 	0.556779 	; 
	87 	1835 	: 	0 	inf 	; 
	87 	3389 	: 	10100.3 	2.59277 	; 
	88 	3832 	: 	11080.4 	0.541974 	; 
	88 	8128 	: 	0 	inf 	; 
	89 	90 	: 	0 	inf 	; 
	89 	2747 	: 	4320.69 	15.2225 	; 
	90 	89 	: 	4320.69 	1.51645 	; 
	90 	4845 	: 	0 	inf 	; 
	91 	2810 	: 	2570.92 	1.29473 	; 
	91 	4847 	: 	0 	inf 	; 
	92 	93 	: 	0 	inf 	; 
	92 	4672 	: 	0 	inf 	; 
	92 	9141 	: 	148.6 	2.34385 	; 
	93 	92 	: 	22 	4.88681 	; 
	93 	4672 	: 	3919.2 	5.35838 	; 
	93 	4766 	: 	3736.63 	1.36849 	; 
	94 	95 	: 	2094.19 	4.22164 	; 
	94 	2736 	: 	0 	inf 	; 
	94 	3837 	: 	1717.73 	7.11244 	; 
	95 	94 	: 	1691.73 	4.21626 	; 
	95 	4766 	: 	3941.2 	2.01808 	; 
	95 	8241 	: 	0 	inf 	; 
	96 	2057 	: 	0 	8.48144 	; 
	96 	3372 	: 	966.847 	9.78197 	; 
	96 	3832 	: 	0 	inf 	; 
	96 	3950 	: 	948.11 	22.1657 	; 
	97 	98 	: 	229.2 	3.18492 	; 
	97 	1836 	: 	1342.46 	12.6344 	; 
	97 	1837 	: 	0 	inf 	; 
	98 	97 	: 	0 	inf 	; 
	98 	3372 	: 	229.2 	14.1397 	; 
	98 	8421 	: 	0 	inf 	; 
	99 	100 	: 	0 	inf 	; 
	99 	1134 	: 	1334.64 	4.80263 	; 
	99 	1432 	: 	0 	9.87268 	; 
	100 	99 	: 	1334.64 	12.7196 	; 
	100 	2626 	: 	191.6 	12.2641 	; 
	100 	3372 	: 	0 	inf 	; 
	101 	102 	: 	142.8 	5.1198 	; 
	101 	5377 	: 	0 	inf 	; 
	101 	9493 	: 	2690.53 	31.7824 	; 
	102 	101 	: 	0 	inf 	; 
	102 	103 	: 	142.8 	6.04035 	; 
	102 	1433 	: 	0 	inf 	; 
	103 	102 	: 	0 	inf 	; 
	103 	104 	: 	142.8 	5.03295 	; 
	103 	1435 	: 	0 	11.8375 	; 
	104 	103 	: 	0 	inf 	; 
	104 	111 	: 	1752.13 	2.9766 	; 
	104 	2056 	: 	0 	inf 	; 
	105 	106 	: 	0 	6.86022 	; 
	105 	4776 	: 	100 	3.78975 	; 
	105 	5376 	: 	567.206 	0.975736 	; 
	106 	105 	: 	0 	6.86022 	; 
	106 	107 	: 	0 	10.8897 	; 
	106 	109 	: 	0 	2.00327 	; 
	107 	106 	: 	0 	10.8897 	; 
	107 	108 	: 	0 	1.96361 	; 
	108 	107 	: 	0 	1.96361 	; 
	108 	5376 	: 	0 	16.3505 	; 
	109 	106 	: 	0 	2.00327 	; 
	109 	110 	: 	0 	inf 	; 
	109 	5376 	: 	100 	2.64359 	; 
	110 	109 	: 	100 	18.1121 	; 
	110 	111 	: 	0 	inf 	; 
	110 	116 	: 	0 	8.52835 	; 
	111 	104 	: 	0 	inf 	; 
	111 	110 	: 	100 	1.09368 	; 
	111 	3372 	: 	208.221 	56.6154 	; 
	111 	3829 	: 	1611.33 	0.977083 	; 
	112 	114 	: 	1471.76 	5.25366 	; 
	112 	226 	: 	2 	11.9652 	; 
	112 	3829 	: 	0 	inf 	; 
	113 	1841 	: 	0 	inf 	; 
	113 	4269 	: 	0 	inf 	; 
	113 	5377 	: 	2972.08 	6.04605 	; 
	114 	112 	: 	0 	inf 	; 
	114 	1841 	: 	2622.85 	10.0253 	; 
	114 	2055 	: 	0 	inf 	; 
	115 	117 	: 	0 	8.32823 	; 
	115 	3829 	: 	567.206 	0.817914 	; 
	115 	5376 	: 	0 	inf 	; 
	116 	110 	: 	0 	8.52835 	; 
	116 	117 	: 	0 	1.91165 	; 
	117 	115 	: 	0 	8.32823 	; 
	117 	116 	: 	0 	1.91165 	; 
	118 	119 	: 	0 	3.34894 	; 
	118 	120 	: 	0 	10.1696 	; 
	118 	121 	: 	0 	39.311 	; 
	119 	118 	: 	0 	3.34894 	; 
	119 	3831 	: 	47.2437 	33.461 	; 
	119 	5252 	: 	768.406 	42.663 	; 
	120 	118 	: 	0 	10.1696 	; 
	121 	118 	: 	0 	39.311 	; 
	122 	123 	: 	0 	inf 	; 
	122 	7645 	: 	2506.37 	11.2578 	; 
	123 	122 	: 	2506.37 	10.4085 	; 
	123 	9909 	: 	0 	inf 	; 
	124 	3856 	: 	1950.39 	11.6389 	; 
	124 	10195 	: 	570.016 	96.6579 	; 
	125 	2173 	: 	0 	inf 	; 
	125 	10346 	: 	4116.86 	43.5715 	; 
	126 	2162 	: 	5670.69 	0.499728 	; 
	126 	8808 	: 	0 	inf 	; 
	127 	128 	: 	0 	inf 	; 
	127 	1838 	: 	8779.89 	2.6116 	; 
	128 	127 	: 	8779.89 	1.65541 	; 
	128 	136 	: 	0 	inf 	; 
	129 	130 	: 	0 	inf 	; 
	129 	140 	: 	6832.87 	14.1445 	; 
	129 	2056 	: 	2760.42 	30.5436 	; 
	130 	129 	: 	9593.28 	1.69368 	; 
	130 	2625 	: 	0 	inf 	; 
	131 	1839 	: 	8.60575 	1.45906 	; 
	131 	1840 	: 	0 	inf 	; 
	132 	133 	: 	0 	inf 	; 
	132 	2055 	: 	1151.09 	2.17932 	; 
	133 	132 	: 	1151.09 	1.52375 	; 
	133 	1435 	: 	0 	inf 	; 
	134 	3930 	: 	0 	87.9424 	; 
	134 	3962 	: 	0 	37.6435 	; 
	134 	8536 	: 	0 	64.0524 	; 
	135 	3111 	: 	174.6 	30.9684 	; 
	135 	3963 	: 	90.4 	28.5268 	; 
	136 	128 	: 	8779.89 	4.75143 	; 
	136 	137 	: 	0 	inf 	; 
	136 	9493 	: 	0 	inf 	; 
	137 	136 	: 	6080.75 	9.60053 	; 
	137 	138 	: 	0 	inf 	; 
	138 	137 	: 	6080.75 	1.01921 	; 
	138 	3351 	: 	0 	inf 	; 
	139 	140 	: 	0 	inf 	; 
	139 	8127 	: 	6832.87 	11.876 	; 
	140 	129 	: 	0 	inf 	; 
	140 	139 	: 	6832.87 	1.04497 	; 
	141 	142 	: 	0 	inf 	; 
	141 	8101 	: 	2462.61 	2.11409 	; 
	142 	141 	: 	2462.61 	2.41945 	; 
	142 	4268 	: 	0 	inf 	; 
	143 	144 	: 	6834.87 	0.802202 	; 
	143 	171 	: 	0 	inf 	; 
	144 	143 	: 	0 	inf 	; 
	144 	2624 	: 	6834.87 	0.898382 	; 
	145 	146 	: 	0 	inf 	; 
	145 	8101 	: 	3975.97 	0.68629 	; 
	146 	145 	: 	3975.97 	0.735629 	; 
	146 	1845 	: 	0 	inf 	; 
	147 	171 	: 	6834.87 	7.19446 	; 
	147 	8127 	: 	0 	inf 	; 
	148 	3214 	: 	0 	inf 	; 
	148 	3351 	: 	6438.58 	1.26985 	; 
	149 	6495 	: 	1602.47 	3.6615 	; 
	149 	6496 	: 	1720.62 	22.4276 	; 
	150 	1679 	: 	1720.62 	3.84765 	; 
	150 	6494 	: 	1602.47 	48.9254 	; 
	151 	152 	: 	0 	inf 	; 
	151 	155 	: 	10424.9 	14.0994 	; 
	151 	161 	: 	0 	inf 	; 
	152 	151 	: 	8775.15 	7.71235 	; 
	152 	153 	: 	0 	inf 	; 
	153 	152 	: 	8775.15 	1.57197 	; 
	153 	4939 	: 	0 	inf 	; 
	154 	163 	: 	10089.6 	1.78993 	; 
	154 	9908 	: 	0 	inf 	; 
	155 	151 	: 	0 	inf 	; 
	155 	156 	: 	0 	inf 	; 
	155 	3637 	: 	12002.4 	26.1756 	; 
	156 	155 	: 	1577.53 	35.0116 	; 
	156 	159 	: 	1014.83 	5.81268 	; 
	156 	160 	: 	0 	inf 	; 
	157 	158 	: 	0 	inf 	; 
	157 	5839 	: 	266.4 	10.3352 	; 
	158 	157 	: 	266.4 	2.09736 	; 
	158 	159 	: 	0 	inf 	; 
	159 	156 	: 	0 	inf 	; 
	159 	158 	: 	266.4 	13.0541 	; 
	159 	6492 	: 	748.425 	9.017 	; 
	160 	156 	: 	2592.36 	4.37151 	; 
	160 	6493 	: 	0 	inf 	; 
	160 	7772 	: 	0 	inf 	; 
	161 	151 	: 	1649.74 	12.9655 	; 
	161 	162 	: 	0 	inf 	; 
	162 	161 	: 	1649.74 	2.61212 	; 
	162 	3635 	: 	0 	inf 	; 
	163 	154 	: 	0 	inf 	; 
	163 	4939 	: 	10089.6 	4.21671 	; 
	164 	167 	: 	0 	inf 	; 
	164 	402 	: 	0 	inf 	; 
	164 	8071 	: 	169.533 	7.46491 	; 
	165 	166 	: 	0 	inf 	; 
	165 	2912 	: 	0 	inf 	; 
	165 	9729 	: 	312.886 	50.5797 	; 
	166 	165 	: 	0 	11.5645 	; 
	166 	2912 	: 	482.419 	5.78013 	; 
	166 	8069 	: 	0 	inf 	; 
	167 	164 	: 	0 	7.02717 	; 
	167 	402 	: 	123.798 	7.16909 	; 
	167 	3700 	: 	0 	inf 	; 
	168 	3701 	: 	0 	inf 	; 
	168 	9728 	: 	493.333 	13.7569 	; 
	168 	9729 	: 	0 	inf 	; 
	169 	170 	: 	329.459 	19.868 	; 
	169 	8005 	: 	3828.97 	45.7178 	; 
	169 	8858 	: 	0 	inf 	; 
	170 	169 	: 	0 	inf 	; 
	170 	8066 	: 	16 	23.6095 	; 
	170 	8081 	: 	313.459 	13.1658 	; 
	171 	143 	: 	6834.87 	4.96589 	; 
	171 	147 	: 	0 	inf 	; 
	172 	173 	: 	294.6 	2.3305 	; 
	172 	8419 	: 	561.238 	10.3567 	; 
	173 	172 	: 	561.238 	2.57567 	; 
	173 	3948 	: 	171.451 	26.3126 	; 
	174 	2582 	: 	0 	13.4516 	; 
	175 	3452 	: 	6355.73 	47.9227 	; 
	175 	3453 	: 	0 	inf 	; 
	176 	177 	: 	0 	inf 	; 
	176 	179 	: 	0 	inf 	; 
	176 	1573 	: 	0 	6.1088 	; 
	176 	3244 	: 	443.267 	3.11258 	; 
	177 	176 	: 	0 	4.56384 	; 
	177 	178 	: 	0 	inf 	; 
	177 	179 	: 	623 	10.5833 	; 
	178 	177 	: 	623 	22.7151 	; 
	178 	6624 	: 	0 	inf 	; 
	178 	9102 	: 	0 	inf 	; 
	179 	176 	: 	443.267 	7.62371 	; 
	179 	177 	: 	0 	inf 	; 
	179 	3686 	: 	623 	2.35193 	; 
	180 	3528 	: 	0 	inf 	; 
	180 	9102 	: 	0 	29.4515 	; 
	181 	5926 	: 	34 	17.2675 	; 
	181 	6039 	: 	35 	83.9444 	; 
	182 	225 	: 	0 	inf 	; 
	182 	3245 	: 	38.5333 	1.01894 	; 
	182 	3246 	: 	2616.63 	54.9097 	; 
	182 	7846 	: 	100 	31.1496 	; 
	183 	1578 	: 	0 	inf 	; 
	183 	3980 	: 	296.133 	24.9291 	; 
	183 	5227 	: 	219.133 	0.708683 	; 
	184 	185 	: 	0 	inf 	; 
	184 	1143 	: 	293.4 	19.0545 	; 
	184 	1577 	: 	515.267 	2.52178 	; 
	184 	3960 	: 	0 	inf 	; 
	185 	184 	: 	412 	0.544117 	; 
	185 	186 	: 	0 	inf 	; 
	185 	3958 	: 	618 	4.67705 	; 
	185 	9735 	: 	0 	inf 	; 
	186 	185 	: 	256.2 	0.778271 	; 
	186 	188 	: 	0 	inf 	; 
	186 	4749 	: 	0 	17.2379 	; 
	187 	188 	: 	256.2 	5.4454 	; 
	187 	5289 	: 	0 	inf 	; 
	188 	186 	: 	256.2 	2.02902 	; 
	188 	187 	: 	0 	inf 	; 
	189 	2713 	: 	0 	inf 	; 
	189 	8103 	: 	2372.13 	6.07788 	; 
	189 	9735 	: 	773.8 	9.18158 	; 
	190 	191 	: 	0 	41.9452 	; 
	190 	7251 	: 	198.4 	8.42491 	; 
	191 	190 	: 	198.4 	42.0204 	; 
	191 	225 	: 	2478.63 	18.4616 	; 
	191 	7250 	: 	0 	138.105 	; 
	191 	9098 	: 	787.981 	24.8687 	; 
	192 	837 	: 	0 	inf 	; 
	192 	10473 	: 	4059.25 	13.4582 	; 
	193 	194 	: 	0 	inf 	; 
	193 	7695 	: 	3771.48 	10.6931 	; 
	194 	193 	: 	3771.48 	1.87966 	; 
	194 	7694 	: 	0 	inf 	; 
	195 	196 	: 	4074.85 	1.26241 	; 
	195 	836 	: 	0 	inf 	; 
	196 	195 	: 	0 	inf 	; 
	196 	9224 	: 	4074.85 	4.013 	; 
	197 	198 	: 	0 	inf 	; 
	197 	3075 	: 	1023.38 	14.596 	; 
	198 	197 	: 	1023.38 	2.2331 	; 
	198 	553 	: 	0 	inf 	; 
	199 	203 	: 	0 	7.78561 	; 
	199 	3072 	: 	0 	inf 	; 
	199 	5680 	: 	2806.1 	5.03081 	; 
	200 	201 	: 	3310.85 	1.3207 	; 
	200 	550 	: 	0 	inf 	; 
	201 	200 	: 	0 	inf 	; 
	201 	830 	: 	3310.85 	20.5015 	; 
	202 	203 	: 	0 	inf 	; 
	202 	7800 	: 	0 	11.7145 	; 
	203 	199 	: 	0 	inf 	; 
	203 	202 	: 	0 	1.97018 	; 
	204 	552 	: 	2806.1 	5.01126 	; 
	204 	5680 	: 	0 	inf 	; 
	205 	7659 	: 	122.333 	1.19322 	; 
	205 	7858 	: 	1725.33 	15.9172 	; 
	206 	213 	: 	0 	46.5404 	; 
	206 	6184 	: 	0 	19.5684 	; 
	207 	210 	: 	339.4 	0.739606 	; 
	207 	838 	: 	0 	inf 	; 
	207 	6185 	: 	978.736 	3.07372 	; 
	207 	7685 	: 	0 	inf 	; 
	208 	209 	: 	0 	0.711377 	; 
	208 	212 	: 	0 	inf 	; 
	208 	5926 	: 	35 	8.56645 	; 
	208 	6422 	: 	34 	7.08941 	; 
	209 	208 	: 	34 	0.711378 	; 
	209 	5926 	: 	0 	inf 	; 
	209 	6810 	: 	0 	5.05572 	; 
	210 	207 	: 	0 	inf 	; 
	210 	211 	: 	1861 	8.98894 	; 
	210 	6185 	: 	0 	inf 	; 
	210 	10473 	: 	15.6 	19.9336 	; 
	211 	210 	: 	0 	inf 	; 
	211 	212 	: 	383.4 	8.02957 	; 
	211 	7685 	: 	1535.6 	0.928693 	; 
	211 	7694 	: 	0 	inf 	; 
	212 	208 	: 	0 	5.05572 	; 
	212 	211 	: 	0 	inf 	; 
	212 	6422 	: 	335.4 	8.45459 	; 
	212 	6810 	: 	629.267 	1.12063 	; 
	213 	206 	: 	0 	46.5404 	; 
	213 	9093 	: 	3762.56 	11.1734 	; 
	213 	9094 	: 	1673.85 	11.6516 	; 
	214 	4656 	: 	1017.69 	7.27374 	; 
	214 	8235 	: 	0 	inf 	; 
	215 	2993 	: 	0 	inf 	; 
	215 	8593 	: 	3024.29 	4.49104 	; 
	216 	3932 	: 	1180.47 	12.008 	; 
	216 	4304 	: 	1936.29 	6.69465 	; 
	216 	5092 	: 	0 	14.3169 	; 
	217 	218 	: 	0 	108.526 	; 
	218 	217 	: 	0 	108.526 	; 
	218 	4289 	: 	1345.53 	21.6415 	; 
	218 	4318 	: 	875.393 	8.21846 	; 
	218 	9781 	: 	256.524 	18.9752 	; 
	219 	80 	: 	167.421 	1.34329 	; 
	219 	220 	: 	704.771 	15.4593 	; 
	220 	219 	: 	167.421 	12.0364 	; 
	220 	5377 	: 	1419.53 	69.3098 	; 
	220 	6109 	: 	1651.15 	14.9228 	; 
	221 	3833 	: 	48 	0.363845 	; 
	221 	4295 	: 	390.8 	1.13978 	; 
	221 	8420 	: 	22 	15.8124 	; 
	222 	3538 	: 	390.8 	15.4904 	; 
	222 	4295 	: 	48 	8.73037 	; 
	223 	520 	: 	262.6 	7.48053 	; 
	223 	3211 	: 	0 	inf 	; 
	224 	3438 	: 	8966.41 	18.8786 	; 
	224 	10497 	: 	0 	inf 	; 
	225 	182 	: 	2478.63 	31.7806 	; 
	225 	191 	: 	805.981 	18.3822 	; 
	225 	3245 	: 	0 	inf 	; 
	225 	6044 	: 	0 	166.41 	; 
	226 	112 	: 	0 	inf 	; 
	226 	2055 	: 	0 	inf 	; 
	226 	8127 	: 	2 	6.3324 	; 
	227 	2623 	: 	69.6 	14.1783 	; 
	227 	4276 	: 	42 	10.0089 	; 
	227 	4774 	: 	0 	19.2144 	; 
	227 	9780 	: 	796.743 	8.2661 	; 
	228 	3535 	: 	4142.66 	6.08987 	; 
	228 	3536 	: 	3689.82 	10.9966 	; 
	228 	8227 	: 	0 	3.46997 	; 
	229 	234 	: 	103.6 	9.71282 	; 
	229 	1857 	: 	0 	inf 	; 
	229 	6388 	: 	0 	inf 	; 
	230 	3068 	: 	0 	inf 	; 
	230 	6388 	: 	103.6 	8.56905 	; 
	231 	232 	: 	0 	inf 	; 
	231 	8981 	: 	4103.03 	38.3619 	; 
	232 	231 	: 	4103.03 	9.618 	; 
	232 	234 	: 	0 	inf 	; 
	232 	6388 	: 	0 	inf 	; 
	233 	236 	: 	4103.03 	23.702 	; 
	233 	3069 	: 	0 	0.978527 	; 
	233 	8981 	: 	0 	inf 	; 
	234 	229 	: 	0 	inf 	; 
	234 	232 	: 	792.185 	19.5898 	; 
	234 	6389 	: 	103.6 	84.3836 	; 
	235 	2720 	: 	1341.77 	14.907 	; 
	235 	6389 	: 	117.867 	125.043 	; 
	235 	7018 	: 	176.9 	32.0588 	; 
	235 	9097 	: 	3638.67 	52.4903 	; 
	236 	233 	: 	0 	inf 	; 
	236 	3069 	: 	2909.7 	11.5702 	; 
	236 	5391 	: 	4103.03 	8285.92 	; 
	237 	830 	: 	0 	inf 	; 
	237 	1857 	: 	3310.85 	78.2342 	; 
	238 	2888 	: 	0 	inf 	; 
	238 	10498 	: 	6954.28 	0.885619 	; 
	239 	2888 	: 	7731.72 	12.2811 	; 
	239 	2889 	: 	0 	inf 	; 
	239 	3212 	: 	0 	inf 	; 
	240 	3390 	: 	0 	inf 	; 
	240 	3835 	: 	9785.1 	4.53152 	; 
	240 	4764 	: 	0 	inf 	; 
	241 	242 	: 	0 	inf 	; 
	241 	3361 	: 	3287.41 	2.8541 	; 
	242 	241 	: 	3287.41 	4.37829 	; 
	242 	2676 	: 	0 	inf 	; 
	243 	1605 	: 	1742.19 	8.96321 	; 
	243 	3083 	: 	0 	inf 	; 
	244 	3185 	: 	0 	inf 	; 
	244 	10090 	: 	2940.5 	16.8855 	; 
	244 	10091 	: 	0 	18.7118 	; 
	245 	881 	: 	6022.14 	9.41384 	; 
	245 	2313 	: 	0 	inf 	; 
	245 	6689 	: 	802.4 	10.0386 	; 
	246 	257 	: 	7178.8 	1.34284 	; 
	246 	4990 	: 	0 	inf 	; 
	247 	248 	: 	0 	inf 	; 
	247 	3093 	: 	6263.54 	1.28367 	; 
	248 	247 	: 	6263.54 	5.89487 	; 
	248 	274 	: 	0 	inf 	; 
	249 	271 	: 	0 	inf 	; 
	249 	273 	: 	6273.84 	2.94319 	; 
	250 	251 	: 	0 	inf 	; 
	250 	3749 	: 	6433.26 	8.11852 	; 
	251 	250 	: 	6433.26 	1.09878 	; 
	251 	5110 	: 	0 	inf 	; 
	252 	253 	: 	0 	inf 	; 
	252 	4995 	: 	6348.67 	8.75073 	; 
	253 	252 	: 	6348.67 	1.08339 	; 
	253 	5141 	: 	0 	inf 	; 
	254 	3088 	: 	7318.91 	9.81073 	; 
	254 	5331 	: 	0 	inf 	; 
	255 	256 	: 	0 	inf 	; 
	255 	3087 	: 	164.8 	3.49276 	; 
	255 	7778 	: 	0 	inf 	; 
	256 	255 	: 	164.8 	1.80601 	; 
	256 	6013 	: 	0 	6.77879 	; 
	256 	7778 	: 	0 	3.73784 	; 
	257 	246 	: 	0 	inf 	; 
	257 	3094 	: 	7178.8 	2.58577 	; 
	258 	4990 	: 	0 	inf 	; 
	258 	7344 	: 	62 	20.1809 	; 
	258 	7741 	: 	59.9333 	0.843994 	; 
	258 	7778 	: 	0 	6.72809 	; 
	259 	260 	: 	1136.4 	1.94016 	; 
	259 	1798 	: 	0 	inf 	; 
	260 	259 	: 	0 	inf 	; 
	260 	261 	: 	1136.4 	6.53922 	; 
	261 	260 	: 	0 	inf 	; 
	261 	262 	: 	0 	inf 	; 
	261 	263 	: 	874.201 	1.02342 	; 
	261 	6435 	: 	914.717 	3.52247 	; 
	262 	261 	: 	652.517 	9.01852 	; 
	262 	267 	: 	0 	inf 	; 
	262 	3091 	: 	939.267 	11.6463 	; 
	262 	4989 	: 	0 	inf 	; 
	263 	261 	: 	0 	inf 	; 
	263 	264 	: 	0 	inf 	; 
	263 	4989 	: 	1819.32 	7.98545 	; 
	264 	263 	: 	945.12 	0.759906 	; 
	264 	265 	: 	253.133 	14.7533 	; 
	264 	6435 	: 	0 	inf 	; 
	265 	264 	: 	0 	inf 	; 
	265 	273 	: 	0 	inf 	; 
	265 	3186 	: 	6526.97 	1.65286 	; 
	266 	274 	: 	6263.54 	5.53154 	; 
	266 	2885 	: 	0 	inf 	; 
	267 	262 	: 	1095.77 	2.89004 	; 
	267 	268 	: 	0 	inf 	; 
	267 	515 	: 	0 	inf 	; 
	268 	267 	: 	190.8 	1.35329 	; 
	268 	269 	: 	0 	inf 	; 
	268 	515 	: 	1323.31 	9.23547 	; 
	268 	4989 	: 	0 	inf 	; 
	269 	268 	: 	190.8 	6.15414 	; 
	269 	270 	: 	0 	inf 	; 
	270 	269 	: 	190.8 	2.41222 	; 
	270 	1906 	: 	0 	inf 	; 
	271 	249 	: 	6273.84 	5.19707 	; 
	271 	272 	: 	0 	inf 	; 
	272 	271 	: 	6273.84 	1.29257 	; 
	272 	1798 	: 	0 	inf 	; 
	273 	249 	: 	0 	inf 	; 
	273 	265 	: 	6273.84 	6.5145 	; 
	274 	248 	: 	6263.54 	2.92984 	; 
	274 	266 	: 	0 	inf 	; 
	275 	6589 	: 	124.8 	0.824757 	; 
	275 	7017 	: 	246.2 	11.7855 	; 
	276 	9098 	: 	601.933 	174.119 	; 
	277 	9094 	: 	879.933 	201.291 	; 
	278 	280 	: 	0 	0.757241 	; 
	278 	282 	: 	0 	inf 	; 
	278 	346 	: 	0 	0.970424 	; 
	279 	1490 	: 	0 	inf 	; 
	279 	2799 	: 	3458.24 	14.9205 	; 
	280 	278 	: 	0 	inf 	; 
	280 	281 	: 	0 	244.56 	; 
	280 	282 	: 	0 	42.3838 	; 
	281 	280 	: 	0 	244.56 	; 
	281 	4275 	: 	12 	302.69 	; 
	282 	278 	: 	0 	36.7745 	; 
	282 	280 	: 	0 	inf 	; 
	282 	9075 	: 	0 	8.522 	; 
	283 	2406 	: 	192.6 	5.72099 	; 
	283 	2408 	: 	0 	inf 	; 
	284 	2454 	: 	0 	inf 	; 
	284 	2455 	: 	287.9 	1.0388 	; 
	285 	8519 	: 	0 	inf 	; 
	285 	8521 	: 	2444.21 	1.68666 	; 
	286 	2456 	: 	0 	inf 	; 
	286 	5422 	: 	946.845 	3.24776 	; 
	287 	5292 	: 	0 	inf 	; 
	287 	5422 	: 	1497.37 	2.17767 	; 
	288 	1378 	: 	0 	inf 	; 
	288 	5421 	: 	54.145 	3.48214 	; 
	289 	2797 	: 	0 	inf 	; 
	289 	3331 	: 	631.933 	6.88468 	; 
	289 	4927 	: 	1248.8 	11.2425 	; 
	290 	2460 	: 	878.402 	8.74846 	; 
	290 	2466 	: 	370.4 	14.9887 	; 
	290 	4927 	: 	0 	inf 	; 
	291 	3284 	: 	1027.52 	5.13844 	; 
	291 	5285 	: 	0 	1.05187 	; 
	292 	293 	: 	9960.56 	5.2819 	; 
	292 	294 	: 	1738.24 	18.0384 	; 
	292 	2462 	: 	0 	inf 	; 
	293 	292 	: 	0 	inf 	; 
	293 	2074 	: 	865.404 	34.3852 	; 
	293 	8375 	: 	9095.16 	39.5094 	; 
	294 	292 	: 	0 	inf 	; 
	294 	295 	: 	1738.24 	6.91411 	; 
	295 	294 	: 	0 	inf 	; 
	295 	5296 	: 	1738.24 	4.95637 	; 
	296 	3814 	: 	0 	25.207 	; 
	297 	2075 	: 	0 	inf 	; 
	297 	3284 	: 	0 	inf 	; 
	297 	4932 	: 	4893.68 	30.2703 	; 
	298 	801 	: 	1471.18 	3.17916 	; 
	298 	802 	: 	0 	inf 	; 
	299 	300 	: 	1068.24 	16.4717 	; 
	299 	9913 	: 	0 	inf 	; 
	300 	299 	: 	0 	inf 	; 
	300 	7608 	: 	78 	31.9063 	; 
	300 	8029 	: 	0 	inf 	; 
	300 	8035 	: 	1963.88 	0.681187 	; 
	300 	9844 	: 	266.8 	45.5512 	; 
	301 	302 	: 	0 	inf 	; 
	301 	808 	: 	122.867 	1.57146 	; 
	302 	301 	: 	122.867 	9.63242 	; 
	302 	303 	: 	0 	inf 	; 
	303 	302 	: 	122.867 	1.56561 	; 
	303 	2247 	: 	0 	inf 	; 
	304 	799 	: 	425.2 	4.87145 	; 
	304 	800 	: 	0 	inf 	; 
	305 	800 	: 	201.067 	11.5742 	; 
	305 	9861 	: 	79.6533 	4.95735 	; 
	305 	9863 	: 	0 	inf 	; 
	306 	308 	: 	0 	inf 	; 
	306 	9863 	: 	79.6533 	11.5342 	; 
	307 	309 	: 	530.22 	1.8989 	; 
	307 	804 	: 	0 	inf 	; 
	308 	306 	: 	79.6533 	3.78528 	; 
	308 	309 	: 	0 	inf 	; 
	309 	307 	: 	0 	inf 	; 
	309 	308 	: 	79.6533 	7.11127 	; 
	309 	8044 	: 	450.567 	28.5768 	; 
	310 	311 	: 	0 	inf 	; 
	310 	2251 	: 	1546.93 	9.49982 	; 
	311 	310 	: 	1546.93 	0.95992 	; 
	311 	312 	: 	0 	inf 	; 
	312 	311 	: 	1546.93 	9.98274 	; 
	312 	313 	: 	0 	inf 	; 
	313 	312 	: 	1546.93 	1.98382 	; 
	313 	314 	: 	0 	inf 	; 
	314 	313 	: 	1546.93 	6.01551 	; 
	314 	315 	: 	0 	inf 	; 
	315 	314 	: 	1546.93 	6.27354 	; 
	315 	8028 	: 	0 	inf 	; 
	316 	317 	: 	0 	inf 	; 
	316 	3676 	: 	368.125 	2.08192 	; 
	317 	316 	: 	368.125 	3.75997 	; 
	317 	6573 	: 	0 	inf 	; 
	318 	2518 	: 	0 	inf 	; 
	318 	9250 	: 	0 	inf 	; 
	318 	9251 	: 	109.2 	0.592289 	; 
	318 	9252 	: 	308.8 	4.27497 	; 
	319 	2127 	: 	0 	60.324 	; 
	319 	2517 	: 	0 	4.48668 	; 
	320 	326 	: 	0 	inf 	; 
	320 	9260 	: 	210.64 	17.5016 	; 
	321 	325 	: 	2394.48 	0.946459 	; 
	321 	9259 	: 	0 	inf 	; 
	322 	324 	: 	9796.54 	0.967903 	; 
	322 	2520 	: 	0 	inf 	; 
	323 	2519 	: 	235.4 	1.08974 	; 
	323 	2520 	: 	0 	inf 	; 
	324 	322 	: 	0 	inf 	; 
	324 	9254 	: 	9796.54 	5.89325 	; 
	325 	321 	: 	0 	inf 	; 
	325 	8464 	: 	2394.48 	30.7779 	; 
	326 	320 	: 	210.64 	0.722397 	; 
	326 	8463 	: 	0 	inf 	; 
	327 	328 	: 	0 	inf 	; 
	327 	2398 	: 	6948.99 	1.59394 	; 
	328 	327 	: 	6948.99 	0.783253 	; 
	328 	333 	: 	0 	inf 	; 
	329 	330 	: 	0 	inf 	; 
	329 	2398 	: 	317.6 	2.24342 	; 
	330 	329 	: 	317.6 	1.05845 	; 
	330 	331 	: 	0 	inf 	; 
	331 	330 	: 	317.6 	6.40825 	; 
	331 	332 	: 	0 	inf 	; 
	331 	9253 	: 	0 	inf 	; 
	332 	331 	: 	244.2 	4.97658 	; 
	332 	333 	: 	0 	inf 	; 
	332 	2517 	: 	696.533 	2.90422 	; 
	332 	2654 	: 	1.6 	59.265 	; 
	333 	328 	: 	6948.99 	8.27603 	; 
	333 	332 	: 	470.8 	17.9214 	; 
	333 	10252 	: 	0 	inf 	; 
	334 	335 	: 	0 	inf 	; 
	334 	7151 	: 	267.133 	5.74244 	; 
	335 	334 	: 	267.133 	1.27685 	; 
	335 	7150 	: 	0 	inf 	; 
	336 	337 	: 	0 	inf 	; 
	336 	7150 	: 	1533.73 	28.7652 	; 
	337 	336 	: 	1533.73 	1.34302 	; 
	337 	7151 	: 	0 	inf 	; 
	338 	339 	: 	0 	1.62948 	; 
	338 	2615 	: 	0 	45.8086 	; 
	339 	338 	: 	0 	1.62948 	; 
	339 	340 	: 	0 	99.3803 	; 
	340 	339 	: 	0 	99.3803 	; 
	340 	2616 	: 	0 	2.43922 	; 
	341 	2616 	: 	0 	30.1178 	; 
	341 	8799 	: 	0 	63.3742 	; 
	341 	9825 	: 	0 	240.088 	; 
	342 	385 	: 	0 	0.756137 	; 
	342 	2257 	: 	0 	12.1664 	; 
	343 	344 	: 	535.4 	20.0386 	; 
	343 	345 	: 	482.8 	3.84719 	; 
	343 	5913 	: 	0 	inf 	; 
	343 	5964 	: 	0 	103.642 	; 
	344 	343 	: 	0 	inf 	; 
	344 	345 	: 	699.567 	19.7139 	; 
	344 	5196 	: 	15.6 	58.0009 	; 
	345 	343 	: 	0 	3.61957 	; 
	345 	344 	: 	0 	inf 	; 
	345 	6264 	: 	1182.37 	6.4835 	; 
	346 	278 	: 	0 	0.970424 	; 
	346 	347 	: 	0 	21.0932 	; 
	346 	9075 	: 	0 	26.7212 	; 
	347 	346 	: 	0 	21.0932 	; 
	347 	9075 	: 	0 	11.9575 	; 
	348 	3069 	: 	0 	55.5278 	; 
	349 	1592 	: 	294.2 	8.52002 	; 
	349 	7215 	: 	0 	inf 	; 
	350 	3767 	: 	0 	inf 	; 
	350 	4981 	: 	5432.28 	16.5216 	; 
	350 	4986 	: 	1130.22 	9.025 	; 
	351 	3186 	: 	0 	inf 	; 
	351 	3767 	: 	6526.97 	1.73201 	; 
	352 	353 	: 	280.267 	1.48784 	; 
	352 	4985 	: 	0 	inf 	; 
	353 	352 	: 	0 	inf 	; 
	353 	6017 	: 	280.267 	2.92778 	; 
	354 	3097 	: 	0 	inf 	; 
	354 	3098 	: 	1904.78 	3.26006 	; 
	354 	7793 	: 	4101.88 	1.47217 	; 
	355 	1570 	: 	0 	inf 	; 
	355 	4972 	: 	3763.74 	4.45065 	; 
	356 	357 	: 	997.864 	1.13845 	; 
	356 	8105 	: 	1837.55 	2.84587 	; 
	357 	356 	: 	1837.55 	2.68597 	; 
	357 	8106 	: 	1099.46 	17.2317 	; 
	358 	439 	: 	2999.35 	9.12847 	; 
	358 	8595 	: 	0 	inf 	; 
	359 	360 	: 	2453.53 	3.00049 	; 
	359 	1726 	: 	0 	inf 	; 
	360 	359 	: 	0 	inf 	; 
	360 	361 	: 	0 	inf 	; 
	360 	5118 	: 	2571.73 	2.9211 	; 
	361 	360 	: 	118.2 	5.1467 	; 
	361 	1913 	: 	0 	inf 	; 
	362 	1697 	: 	2002.09 	3.27638 	; 
	362 	3497 	: 	24 	4.11824 	; 
	362 	7764 	: 	0 	inf 	; 
	363 	3498 	: 	114.2 	6.58224 	; 
	363 	10205 	: 	0 	inf 	; 
	364 	1696 	: 	0 	inf 	; 
	364 	5051 	: 	4591.83 	2.83248 	; 
	364 	5118 	: 	0 	inf 	; 
	365 	2831 	: 	0 	inf 	; 
	365 	8368 	: 	1788.72 	13.9976 	; 
	366 	367 	: 	0 	inf 	; 
	366 	5064 	: 	1485.54 	16.6471 	; 
	367 	366 	: 	1485.54 	6.54628 	; 
	367 	5058 	: 	0 	inf 	; 
	367 	8788 	: 	0 	inf 	; 
	368 	3500 	: 	0 	inf 	; 
	368 	5059 	: 	0 	inf 	; 
	368 	7156 	: 	30.8 	8.33551 	; 
	368 	7682 	: 	0 	7.97144 	; 
	369 	5064 	: 	6269.94 	14.6277 	; 
	369 	8917 	: 	0 	inf 	; 
	370 	2833 	: 	7337.51 	11.1772 	; 
	370 	5061 	: 	0 	inf 	; 
	370 	8895 	: 	0 	inf 	; 
	371 	3309 	: 	0 	inf 	; 
	371 	8895 	: 	8092.76 	1.44743 	; 
	372 	5062 	: 	666.2 	6.84563 	; 
	372 	5066 	: 	0 	inf 	; 
	373 	3971 	: 	4425.72 	3.19723 	; 
	373 	4690 	: 	93.8442 	48.4144 	; 
	373 	7548 	: 	1343.5 	35.1325 	; 
	374 	1948 	: 	5065.17 	10.1376 	; 
	374 	3258 	: 	22 	16.777 	; 
	374 	4661 	: 	0 	inf 	; 
	375 	1946 	: 	7559.4 	4.15181 	; 
	375 	1947 	: 	0 	inf 	; 
	375 	3984 	: 	0 	inf 	; 
	376 	3258 	: 	0 	inf 	; 
	376 	3984 	: 	2494.22 	3.1126 	; 
	377 	378 	: 	0 	inf 	; 
	377 	7518 	: 	1887.02 	18.4866 	; 
	378 	377 	: 	1887.02 	2.05346 	; 
	378 	1953 	: 	0 	inf 	; 
	379 	1957 	: 	0 	inf 	; 
	379 	5131 	: 	12 	16.2114 	; 
	380 	381 	: 	34 	1.13385 	; 
	380 	1958 	: 	0 	inf 	; 
	380 	8971 	: 	5218.32 	20.1375 	; 
	380 	8972 	: 	583.21 	99.3772 	; 
	381 	380 	: 	5440.13 	1.18093 	; 
	381 	1961 	: 	26.2667 	8.02559 	; 
	381 	4071 	: 	129.333 	4.73565 	; 
	381 	6298 	: 	0 	inf 	; 
	382 	2253 	: 	36 	165.752 	; 
	383 	384 	: 	15.6 	6.55115 	; 
	383 	5964 	: 	36 	104.022 	; 
	384 	383 	: 	36 	6.55115 	; 
	384 	10316 	: 	15.6 	16.4397 	; 
	385 	342 	: 	0 	0.756137 	; 
	385 	2256 	: 	15.6 	73.4237 	; 
	385 	8842 	: 	36 	493.401 	; 
	386 	387 	: 	0 	inf 	; 
	386 	538 	: 	379.651 	5.13909 	; 
	386 	6695 	: 	105.6 	108.272 	; 
	387 	386 	: 	105.6 	5.03136 	; 
	387 	538 	: 	0 	2.33854 	; 
	387 	3470 	: 	0 	inf 	; 
	387 	6721 	: 	0 	42.9447 	; 
	388 	4275 	: 	0 	475.331 	; 
	389 	3914 	: 	1057.03 	81.8764 	; 
	389 	3936 	: 	0 	inf 	; 
	389 	3937 	: 	243 	54.9087 	; 
	389 	3939 	: 	0 	0.906399 	; 
	389 	9535 	: 	0 	inf 	; 
	390 	391 	: 	0 	inf 	; 
	390 	5353 	: 	377.467 	1.29155 	; 
	390 	9200 	: 	628.133 	22.5527 	; 
	391 	390 	: 	831.4 	18.2517 	; 
	391 	4389 	: 	0 	inf 	; 
	392 	4389 	: 	577.733 	7.07736 	; 
	392 	8672 	: 	0 	inf 	; 
	392 	8988 	: 	0 	inf 	; 
	393 	394 	: 	965.933 	18.205 	; 
	393 	2721 	: 	1866.4 	31.5939 	; 
	393 	6587 	: 	16 	27.0224 	; 
	394 	393 	: 	1882.4 	18.2296 	; 
	394 	6019 	: 	242.733 	108.988 	; 
	394 	6629 	: 	729.2 	18.3869 	; 
	395 	396 	: 	0 	6.57282 	; 
	395 	1162 	: 	178.145 	31.8987 	; 
	396 	395 	: 	178.145 	6.58048 	; 
	396 	397 	: 	0 	42.5326 	; 
	397 	396 	: 	178.145 	42.5822 	; 
	397 	398 	: 	0 	33.3412 	; 
	397 	3384 	: 	0 	42.5334 	; 
	397 	6865 	: 	69.0419 	26.0304 	; 
	398 	397 	: 	40.5537 	33.3413 	; 
	398 	646 	: 	0 	22.1433 	; 
	398 	2622 	: 	0 	70.3203 	; 
	398 	9202 	: 	0 	59.864 	; 
	399 	400 	: 	0 	inf 	; 
	399 	2538 	: 	0 	inf 	; 
	399 	8467 	: 	128.2 	2.05802 	; 
	400 	399 	: 	128.2 	3.72123 	; 
	400 	401 	: 	0 	inf 	; 
	400 	10256 	: 	45.6 	10.4157 	; 
	401 	400 	: 	173.8 	1.06311 	; 
	401 	2539 	: 	0 	inf 	; 
	401 	8492 	: 	0 	inf 	; 
	402 	164 	: 	169.533 	3.03417 	; 
	402 	167 	: 	0 	inf 	; 
	402 	2911 	: 	123.798 	0.484979 	; 
	402 	2912 	: 	0 	inf 	; 
	403 	2704 	: 	0 	inf 	; 
	403 	5982 	: 	302.345 	9.44162 	; 
	403 	6397 	: 	447.577 	11.4685 	; 
	403 	8067 	: 	162.067 	5.85158 	; 
	404 	1496 	: 	1440.87 	63.8314 	; 
	404 	6971 	: 	0 	inf 	; 
	404 	8206 	: 	0 	0.829739 	; 
	405 	2503 	: 	263.32 	1.65781 	; 
	405 	2523 	: 	324.733 	1.18508 	; 
	406 	2503 	: 	324.733 	0.725128 	; 
	406 	2513 	: 	263.32 	18.3191 	; 
	407 	410 	: 	6492.85 	0.734282 	; 
	407 	10392 	: 	0 	inf 	; 
	408 	409 	: 	210.64 	0.736514 	; 
	408 	2401 	: 	0 	inf 	; 
	409 	408 	: 	0 	inf 	; 
	409 	8476 	: 	210.64 	7.3666 	; 
	410 	407 	: 	0 	inf 	; 
	410 	8473 	: 	6492.85 	8.12031 	; 
	411 	412 	: 	0 	inf 	; 
	411 	414 	: 	0 	inf 	; 
	411 	2476 	: 	10093.2 	15.9063 	; 
	412 	411 	: 	10093.2 	3.74201 	; 
	412 	413 	: 	0 	inf 	; 
	413 	412 	: 	10093.2 	0.951581 	; 
	413 	2528 	: 	0 	inf 	; 
	414 	411 	: 	8.52651e-14 	4.08096 	; 
	414 	415 	: 	0 	inf 	; 
	415 	414 	: 	8.52651e-14 	1.05235 	; 
	415 	2527 	: 	0 	inf 	; 
	416 	2525 	: 	0 	inf 	; 
	416 	2529 	: 	146.333 	2.95196 	; 
	416 	7878 	: 	4 	9.19405 	; 
	417 	418 	: 	0 	65.8393 	; 
	417 	419 	: 	0 	inf 	; 
	417 	7500 	: 	136.1 	1.07077 	; 
	417 	7501 	: 	483 	7.24522 	; 
	418 	417 	: 	0 	inf 	; 
	418 	5912 	: 	683.867 	30.5794 	; 
	418 	6966 	: 	53 	1.60325 	; 
	418 	6967 	: 	24.9333 	13.1674 	; 
	419 	417 	: 	0 	83.0751 	; 
	419 	7500 	: 	0 	inf 	; 
	420 	1850 	: 	2811.21 	1.33172 	; 
	420 	2753 	: 	0 	inf 	; 
	421 	425 	: 	1580.61 	5.48417 	; 
	421 	1850 	: 	0 	inf 	; 
	422 	2753 	: 	2377.53 	6.8273 	; 
	422 	2981 	: 	0 	inf 	; 
	422 	4816 	: 	596.267 	27.6551 	; 
	423 	3604 	: 	0 	inf 	; 
	423 	7662 	: 	0 	inf 	; 
	423 	8600 	: 	1329.28 	52.8594 	; 
	424 	426 	: 	838.117 	5.70483 	; 
	424 	2227 	: 	709.106 	25.7668 	; 
	424 	6542 	: 	0 	inf 	; 
	425 	421 	: 	0 	inf 	; 
	425 	426 	: 	652.533 	0.774698 	; 
	425 	3604 	: 	1329.28 	4.12156 	; 
	425 	7662 	: 	0 	inf 	; 
	426 	424 	: 	0 	inf 	; 
	426 	425 	: 	0 	inf 	; 
	426 	2752 	: 	1490.65 	5.0413 	; 
	427 	2754 	: 	0 	inf 	; 
	427 	2982 	: 	2773.89 	37.7005 	; 
	427 	4603 	: 	0 	inf 	; 
	428 	2981 	: 	3034.57 	46.9748 	; 
	428 	4283 	: 	0 	inf 	; 
	429 	430 	: 	0 	inf 	; 
	429 	436 	: 	1805.62 	4.51449 	; 
	429 	2137 	: 	514.067 	11.2022 	; 
	430 	429 	: 	2319.68 	10.6578 	; 
	430 	2141 	: 	0 	inf 	; 
	430 	2997 	: 	0 	inf 	; 
	431 	432 	: 	0 	inf 	; 
	431 	2136 	: 	0 	inf 	; 
	431 	2996 	: 	3576.72 	14.4858 	; 
	432 	431 	: 	2389.72 	3.07869 	; 
	432 	2132 	: 	0 	inf 	; 
	433 	434 	: 	0 	inf 	; 
	433 	8592 	: 	2884.48 	5.24726 	; 
	434 	433 	: 	2884.48 	5.54443 	; 
	434 	435 	: 	0 	inf 	; 
	435 	434 	: 	2884.48 	5.97087 	; 
	435 	8588 	: 	0 	inf 	; 
	436 	429 	: 	0 	inf 	; 
	436 	2128 	: 	1805.62 	4.87782 	; 
	437 	439 	: 	0 	inf 	; 
	437 	2603 	: 	16 	0.855013 	; 
	437 	8594 	: 	3247.14 	17.2872 	; 
	438 	439 	: 	0 	0.972712 	; 
	438 	2602 	: 	0 	inf 	; 
	438 	8638 	: 	2573.81 	8.59844 	; 
	439 	358 	: 	0 	inf 	; 
	439 	437 	: 	2999.35 	8.30527 	; 
	439 	438 	: 	0 	0.972712 	; 
	439 	877 	: 	0 	16.3182 	; 
	440 	441 	: 	0 	inf 	; 
	440 	1771 	: 	2294.35 	2.77339 	; 
	440 	6759 	: 	342.033 	4.36682 	; 
	441 	440 	: 	2636.38 	1.07909 	; 
	441 	1772 	: 	0 	inf 	; 
	442 	443 	: 	1965.03 	2.08208 	; 
	442 	584 	: 	0 	inf 	; 
	443 	442 	: 	0 	inf 	; 
	443 	867 	: 	1965.03 	30.7335 	; 
	444 	2592 	: 	1075.87 	6.52764 	; 
	444 	2593 	: 	0 	inf 	; 
	445 	450 	: 	5078.65 	0.788095 	; 
	445 	8365 	: 	0 	inf 	; 
	446 	449 	: 	0 	inf 	; 
	446 	2471 	: 	2695.13 	38.4247 	; 
	447 	448 	: 	0 	inf 	; 
	447 	10116 	: 	10772 	35.1945 	; 
	448 	447 	: 	10772 	1.11938 	; 
	448 	4921 	: 	0 	inf 	; 
	449 	446 	: 	2695.13 	1.08643 	; 
	449 	2472 	: 	0 	inf 	; 
	450 	445 	: 	0 	inf 	; 
	450 	2402 	: 	5078.65 	9.4319 	; 
	451 	452 	: 	1281.91 	23.7991 	; 
	451 	4317 	: 	1574.12 	28.3514 	; 
	452 	451 	: 	1574.12 	32.5376 	; 
	452 	3535 	: 	1281.91 	6.88998 	; 
	453 	3748 	: 	12 	2.59152 	; 
	453 	6813 	: 	56.9333 	4.51363 	; 
	453 	9038 	: 	0 	inf 	; 
	454 	528 	: 	208 	0.957946 	; 
	454 	3748 	: 	265.4 	0.922075 	; 
	455 	456 	: 	0 	inf 	; 
	455 	7369 	: 	3070.12 	1.40402 	; 
	455 	9385 	: 	0 	inf 	; 
	456 	455 	: 	389.221 	6.41775 	; 
	456 	458 	: 	0 	1.69379 	; 
	456 	527 	: 	0 	inf 	; 
	456 	2666 	: 	0 	38.2726 	; 
	457 	6903 	: 	2991.12 	6.28927 	; 
	457 	7369 	: 	0 	inf 	; 
	458 	456 	: 	0 	1.69379 	; 
	458 	459 	: 	1353.06 	10.6209 	; 
	458 	7291 	: 	0 	4.24079 	; 
	458 	9385 	: 	0 	inf 	; 
	459 	458 	: 	0 	inf 	; 
	459 	527 	: 	1353.06 	8.33089 	; 
	460 	6903 	: 	0 	inf 	; 
	460 	9035 	: 	4062.73 	3.7214 	; 
	461 	4502 	: 	196.215 	4.99152 	; 
	461 	4963 	: 	35 	5.91812 	; 
	461 	5490 	: 	3169 	11.7109 	; 
	462 	463 	: 	0 	inf 	; 
	462 	9077 	: 	4050.73 	7.80157 	; 
	463 	462 	: 	4050.73 	2.09601 	; 
	463 	5140 	: 	0 	inf 	; 
	464 	3124 	: 	0 	inf 	; 
	464 	9156 	: 	268 	17.4853 	; 
	464 	10368 	: 	293.267 	6.52295 	; 
	465 	466 	: 	0 	inf 	; 
	465 	470 	: 	574.933 	1.55059 	; 
	466 	465 	: 	574.933 	3.91828 	; 
	466 	467 	: 	0 	inf 	; 
	466 	468 	: 	496.6 	10.2374 	; 
	466 	6797 	: 	0 	inf 	; 
	467 	466 	: 	496.6 	3.12455 	; 
	467 	4867 	: 	0 	inf 	; 
	467 	6797 	: 	213.94 	8.67032 	; 
	468 	466 	: 	0 	inf 	; 
	468 	469 	: 	496.6 	1.83324 	; 
	469 	468 	: 	0 	inf 	; 
	469 	1342 	: 	496.6 	11.2058 	; 
	470 	465 	: 	0 	inf 	; 
	470 	3205 	: 	0 	inf 	; 
	470 	4867 	: 	1221.27 	4.95071 	; 
	471 	472 	: 	0 	inf 	; 
	471 	3026 	: 	0 	12.2685 	; 
	472 	471 	: 	0 	4.35247 	; 
	472 	3147 	: 	0 	inf 	; 
	473 	474 	: 	0 	inf 	; 
	473 	2676 	: 	3287.41 	64.9098 	; 
	473 	3537 	: 	0 	inf 	; 
	474 	473 	: 	481.196 	8.66978 	; 
	474 	3537 	: 	42 	9.04193 	; 
	474 	8363 	: 	446.6 	18.0141 	; 
	475 	476 	: 	78 	1.72468 	; 
	475 	2623 	: 	1279.59 	7.77363 	; 
	475 	8226 	: 	0 	inf 	; 
	476 	475 	: 	0 	inf 	; 
	476 	3354 	: 	78 	5.47238 	; 
	476 	8226 	: 	0 	inf 	; 
	477 	478 	: 	1974.81 	3.19833 	; 
	477 	479 	: 	0 	inf 	; 
	478 	477 	: 	0 	inf 	; 
	478 	8230 	: 	1974.81 	13.5428 	; 
	479 	477 	: 	1974.81 	13.5954 	; 
	479 	3352 	: 	1334.98 	10.6926 	; 
	479 	4658 	: 	0 	inf 	; 
	480 	8586 	: 	1465.6 	5.87972 	; 
	480 	8587 	: 	0 	inf 	; 
	481 	482 	: 	247.2 	2.53438 	; 
	481 	1770 	: 	0 	inf 	; 
	481 	2492 	: 	2736.46 	17.1864 	; 
	482 	481 	: 	0 	2.52347 	; 
	482 	4288 	: 	0 	inf 	; 
	482 	7213 	: 	1703.2 	30.7918 	; 
	483 	484 	: 	1615.76 	0.945992 	; 
	483 	2524 	: 	688.9 	9.06895 	; 
	484 	483 	: 	688.9 	0.93459 	; 
	484 	3283 	: 	1615.76 	60.7447 	; 
	485 	486 	: 	447 	0.875259 	; 
	485 	6181 	: 	143.733 	28.9936 	; 
	486 	485 	: 	143.733 	0.870105 	; 
	486 	2498 	: 	447 	64.8573 	; 
	487 	488 	: 	0 	inf 	; 
	487 	1550 	: 	616.667 	16.884 	; 
	488 	487 	: 	616.667 	5.83416 	; 
	488 	5226 	: 	0 	inf 	; 
	489 	3273 	: 	3029.78 	6.57487 	; 
	489 	4804 	: 	146.2 	7.50749 	; 
	490 	491 	: 	178.2 	2.20964 	; 
	490 	5216 	: 	2568.25 	2.09219 	; 
	491 	490 	: 	2568.25 	2.21082 	; 
	491 	3273 	: 	178.2 	0.607211 	; 
	492 	494 	: 	684.188 	3.76869 	; 
	492 	5216 	: 	0 	inf 	; 
	493 	8378 	: 	230.531 	31.023 	; 
	493 	8379 	: 	6368.35 	15.2304 	; 
	493 	10477 	: 	0 	inf 	; 
	494 	492 	: 	0 	inf 	; 
	494 	8379 	: 	684.188 	9.17393 	; 
	495 	496 	: 	2589.61 	6.08536 	; 
	495 	10120 	: 	0 	inf 	; 
	496 	495 	: 	0 	inf 	; 
	496 	497 	: 	2589.61 	69.7615 	; 
	497 	496 	: 	0 	inf 	; 
	497 	5457 	: 	5412.07 	10.6614 	; 
	497 	5459 	: 	0 	inf 	; 
	498 	499 	: 	0 	inf 	; 
	498 	5459 	: 	2822.47 	5.54957 	; 
	498 	8239 	: 	0 	inf 	; 
	499 	498 	: 	2814.47 	17.8911 	; 
	499 	5461 	: 	0 	inf 	; 
	500 	1423 	: 	12 	64.4554 	; 
	500 	4294 	: 	0 	18.0854 	; 
	500 	8239 	: 	0 	inf 	; 
	501 	503 	: 	0 	inf 	; 
	501 	8239 	: 	20 	2.46628 	; 
	502 	503 	: 	0 	inf 	; 
	502 	509 	: 	2132.05 	24.6599 	; 
	503 	501 	: 	20 	16.1144 	; 
	503 	502 	: 	2132.05 	35.9644 	; 
	503 	8238 	: 	0 	inf 	; 
	504 	505 	: 	0 	inf 	; 
	504 	506 	: 	927.506 	5.32586 	; 
	505 	504 	: 	927.506 	8.15887 	; 
	505 	3140 	: 	0 	inf 	; 
	505 	5411 	: 	0 	inf 	; 
	506 	504 	: 	0 	inf 	; 
	506 	5623 	: 	0 	inf 	; 
	506 	8238 	: 	3015.54 	30.2682 	; 
	507 	508 	: 	0 	inf 	; 
	507 	8128 	: 	11080.4 	24.5616 	; 
	508 	507 	: 	11080.4 	10.5022 	; 
	508 	509 	: 	0 	inf 	; 
	509 	502 	: 	0 	inf 	; 
	509 	508 	: 	11080.4 	6.23663 	; 
	509 	4762 	: 	0 	inf 	; 
	510 	511 	: 	0 	0.85269 	; 
	510 	4078 	: 	846.673 	9.72712 	; 
	511 	510 	: 	846.673 	0.853502 	; 
	511 	4074 	: 	628.288 	1.00224 	; 
	511 	8768 	: 	777.518 	22.512 	; 
	512 	513 	: 	327.4 	7.77385 	; 
	512 	4076 	: 	0 	inf 	; 
	512 	6908 	: 	0 	inf 	; 
	513 	512 	: 	0 	inf 	; 
	513 	514 	: 	267.8 	14.2612 	; 
	513 	3543 	: 	475 	10.9485 	; 
	513 	3544 	: 	537.467 	4.33428 	; 
	514 	513 	: 	0 	inf 	; 
	514 	4074 	: 	1702.19 	0.605206 	; 
	514 	4077 	: 	0 	inf 	; 
	515 	267 	: 	904.974 	10.3243 	; 
	515 	268 	: 	0 	inf 	; 
	515 	9050 	: 	1323.31 	20.7805 	; 
	516 	3508 	: 	0 	2.42422 	; 
	516 	9052 	: 	10 	3.3123 	; 
	517 	6628 	: 	0 	11.0044 	; 
	517 	6902 	: 	0 	19.192 	; 
	518 	5026 	: 	1045.44 	5.12675 	; 
	518 	5032 	: 	0 	inf 	; 
	519 	3511 	: 	0 	2.97751 	; 
	519 	5026 	: 	0 	inf 	; 
	519 	6628 	: 	480.867 	5.02634 	; 
	520 	223 	: 	0 	inf 	; 
	520 	8240 	: 	262.6 	3.18134 	; 
	521 	522 	: 	2583.39 	3.61872 	; 
	521 	1162 	: 	1323.54 	0.657641 	; 
	522 	521 	: 	1323.54 	1.7018 	; 
	522 	5315 	: 	2583.39 	0.650668 	; 
	523 	4597 	: 	910.867 	0.528456 	; 
	523 	4598 	: 	0 	inf 	; 
	523 	4601 	: 	80.4 	20.5113 	; 
	524 	525 	: 	719.2 	1.96182 	; 
	524 	3216 	: 	1030.07 	13.1459 	; 
	525 	524 	: 	1030.07 	1.96201 	; 
	525 	4017 	: 	719.2 	3.2212 	; 
	526 	3219 	: 	1161.27 	2.53708 	; 
	526 	6233 	: 	1407.2 	13.2138 	; 
	527 	456 	: 	389.221 	18.6452 	; 
	527 	459 	: 	0 	inf 	; 
	527 	3946 	: 	1377.06 	8.28583 	; 
	527 	6813 	: 	54.1 	8.83881 	; 
	528 	454 	: 	265.4 	0.957946 	; 
	528 	9037 	: 	208 	0.516394 	; 
	528 	9038 	: 	56.9333 	1.76645 	; 
	529 	2825 	: 	0 	inf 	; 
	529 	4568 	: 	0 	inf 	; 
	529 	8411 	: 	2077.41 	7.71531 	; 
	530 	3027 	: 	2161.18 	0.883799 	; 
	530 	3560 	: 	16 	8.75799 	; 
	530 	4531 	: 	7.6 	0.512425 	; 
	531 	532 	: 	0 	inf 	; 
	531 	3027 	: 	1311.5 	1.01776 	; 
	531 	4530 	: 	22 	0.511012 	; 
	531 	4588 	: 	0 	3.68227 	; 
	532 	531 	: 	839.367 	3.24234 	; 
	532 	533 	: 	0 	inf 	; 
	532 	5587 	: 	0 	inf 	; 
	533 	532 	: 	0 	10.5588 	; 
	533 	2828 	: 	354.919 	4.85576 	; 
	533 	5030 	: 	0 	inf 	; 
	534 	3556 	: 	1150.67 	0.994689 	; 
	534 	10232 	: 	0 	inf 	; 
	535 	1480 	: 	2644.07 	22.7173 	; 
	535 	1905 	: 	0 	inf 	; 
	535 	3418 	: 	0 	inf 	; 
	536 	3567 	: 	140 	2.18269 	; 
	536 	4581 	: 	2576.67 	4.44862 	; 
	536 	6700 	: 	472.133 	7.62553 	; 
	537 	2954 	: 	0 	inf 	; 
	537 	8589 	: 	2484.51 	3.66352 	; 
	538 	386 	: 	0 	inf 	; 
	538 	387 	: 	0 	2.33854 	; 
	538 	3470 	: 	0 	inf 	; 
	538 	3472 	: 	379.651 	14.5613 	; 
	539 	5791 	: 	300 	109.245 	; 
	539 	9157 	: 	286.733 	4.92114 	; 
	540 	541 	: 	0 	2.04625 	; 
	540 	543 	: 	0 	inf 	; 
	540 	3899 	: 	347.651 	16.4075 	; 
	541 	540 	: 	0 	2.04625 	; 
	541 	542 	: 	112.133 	9.11861 	; 
	541 	9177 	: 	0 	inf 	; 
	542 	541 	: 	0 	inf 	; 
	542 	543 	: 	0 	2.02405 	; 
	542 	8726 	: 	112.133 	3.91087 	; 
	543 	540 	: 	347.651 	9.14203 	; 
	543 	542 	: 	0 	2.02405 	; 
	543 	9157 	: 	0 	inf 	; 
	544 	545 	: 	0 	inf 	; 
	544 	2244 	: 	0 	inf 	; 
	544 	9171 	: 	341.651 	9.52448 	; 
	545 	544 	: 	341.651 	9.11481 	; 
	545 	546 	: 	0 	inf 	; 
	545 	2619 	: 	0 	inf 	; 
	545 	6088 	: 	74.5333 	2.05031 	; 
	545 	9173 	: 	6 	79.0798 	; 
	546 	545 	: 	347.651 	2.08153 	; 
	546 	3899 	: 	0 	inf 	; 
	546 	6088 	: 	0 	3.69875 	; 
	547 	17 	: 	4986.23 	1.79965 	; 
	547 	9422 	: 	0 	inf 	; 
	548 	1792 	: 	940.133 	41.0966 	; 
	548 	3344 	: 	603.74 	4.53814 	; 
	548 	3345 	: 	1441.98 	6.15192 	; 
	548 	9835 	: 	553.344 	5.3085 	; 
	549 	2258 	: 	16 	32.6283 	; 
	549 	4039 	: 	7.6 	19.6695 	; 
	550 	200 	: 	3310.85 	4.48968 	; 
	550 	551 	: 	0 	inf 	; 
	551 	550 	: 	3310.85 	2.2596 	; 
	551 	556 	: 	0 	inf 	; 
	552 	204 	: 	0 	inf 	; 
	552 	3074 	: 	2806.1 	2.32537 	; 
	553 	198 	: 	1023.38 	5.18388 	; 
	553 	3070 	: 	0 	inf 	; 
	553 	10475 	: 	0 	inf 	; 
	554 	3074 	: 	0 	inf 	; 
	554 	3076 	: 	2806.1 	1.36711 	; 
	555 	556 	: 	3310.85 	1.23181 	; 
	555 	9224 	: 	0 	inf 	; 
	556 	551 	: 	3310.85 	4.57137 	; 
	556 	555 	: 	0 	inf 	; 
	557 	561 	: 	369.462 	3.63046 	; 
	557 	5711 	: 	180.6 	2.29206 	; 
	557 	7268 	: 	544.467 	47.9879 	; 
	558 	559 	: 	0 	inf 	; 
	558 	4824 	: 	11175.6 	13.7827 	; 
	558 	7824 	: 	0 	inf 	; 
	559 	558 	: 	11175.6 	23.4812 	; 
	559 	4818 	: 	0 	inf 	; 
	559 	7824 	: 	709.9 	27.2184 	; 
	560 	3455 	: 	0 	inf 	; 
	560 	5255 	: 	1483.5 	31.7612 	; 
	560 	10536 	: 	5345.4 	11.981 	; 
	561 	557 	: 	0 	inf 	; 
	561 	5711 	: 	947.733 	2.84376 	; 
	561 	5712 	: 	1777.82 	0.843175 	; 
	562 	563 	: 	196.933 	6.95551 	; 
	562 	6551 	: 	222.533 	55.635 	; 
	562 	7080 	: 	151 	32.9272 	; 
	563 	562 	: 	373.533 	6.97425 	; 
	563 	2208 	: 	805.333 	48.0613 	; 
	563 	5723 	: 	226.733 	50.7519 	; 
	563 	6198 	: 	288.842 	48.5087 	; 
	564 	6107 	: 	0 	47.9427 	; 
	565 	5740 	: 	485.9 	43.8606 	; 
	565 	5741 	: 	838.118 	22.5934 	; 
	565 	5746 	: 	26 	65.5033 	; 
	565 	6563 	: 	673.414 	33.7958 	; 
	566 	567 	: 	0 	inf 	; 
	566 	860 	: 	2986.08 	10.4303 	; 
	566 	1765 	: 	0 	14.3822 	; 
	566 	2600 	: 	0 	1.10798 	; 
	567 	566 	: 	2930.08 	25.4438 	; 
	567 	568 	: 	0 	inf 	; 
	567 	569 	: 	891.267 	0.639826 	; 
	567 	570 	: 	0 	inf 	; 
	568 	567 	: 	2857.21 	0.856621 	; 
	568 	863 	: 	1646.22 	10.9908 	; 
	568 	2605 	: 	0 	inf 	; 
	568 	10390 	: 	0 	inf 	; 
	569 	567 	: 	0 	inf 	; 
	569 	1846 	: 	727.6 	8.37917 	; 
	569 	2600 	: 	0 	inf 	; 
	569 	10390 	: 	2584.34 	0.80658 	; 
	570 	567 	: 	964.133 	10.958 	; 
	570 	571 	: 	0 	inf 	; 
	571 	570 	: 	964.133 	1.19655 	; 
	571 	10270 	: 	0 	inf 	; 
	572 	5737 	: 	257 	13.4753 	; 
	572 	8106 	: 	2431.42 	13.304 	; 
	573 	950 	: 	0 	inf 	; 
	573 	951 	: 	0 	inf 	; 
	573 	9637 	: 	10402.4 	2.28699 	; 
	574 	7999 	: 	2650.85 	6.43297 	; 
	574 	8814 	: 	0 	inf 	; 
	575 	576 	: 	8028.68 	1.62742 	; 
	575 	7997 	: 	0 	inf 	; 
	576 	575 	: 	0 	inf 	; 
	576 	7991 	: 	8028.68 	2.51606 	; 
	577 	626 	: 	6169.4 	1.55553 	; 
	577 	9354 	: 	0 	inf 	; 
	578 	579 	: 	0 	inf 	; 
	578 	3728 	: 	3978.79 	1.64445 	; 
	579 	578 	: 	3978.79 	1.4804 	; 
	579 	9998 	: 	0 	inf 	; 
	580 	4366 	: 	863.9 	27.415 	; 
	580 	7937 	: 	0 	inf 	; 
	580 	7949 	: 	5406.87 	19.2259 	; 
	581 	583 	: 	0 	inf 	; 
	581 	9925 	: 	2991.8 	5.49485 	; 
	582 	4094 	: 	4937.1 	6.98659 	; 
	582 	4105 	: 	0 	inf 	; 
	583 	581 	: 	2991.8 	1.41957 	; 
	583 	2728 	: 	0 	inf 	; 
	584 	442 	: 	1965.03 	3.49036 	; 
	584 	585 	: 	0 	inf 	; 
	584 	2592 	: 	0 	inf 	; 
	585 	584 	: 	1965.03 	7.86557 	; 
	585 	616 	: 	0 	inf 	; 
	585 	2592 	: 	0 	10.4589 	; 
	586 	6907 	: 	507.021 	6.48844 	; 
	586 	7489 	: 	1562.52 	8.10643 	; 
	587 	3420 	: 	204 	2.49695 	; 
	587 	4567 	: 	34 	31.6194 	; 
	588 	2848 	: 	0 	11.9869 	; 
	588 	3559 	: 	30 	5.42386 	; 
	588 	4331 	: 	4 	10.465 	; 
	588 	4567 	: 	-2.22045e-15 	3.47548 	; 
	588 	8782 	: 	34 	7.68883 	; 
	589 	2849 	: 	0 	inf 	; 
	589 	3289 	: 	1947.37 	7.70625 	; 
	589 	8770 	: 	6 	8.14729 	; 
	589 	8784 	: 	0 	7.70858 	; 
	590 	4695 	: 	451.658 	26.353 	; 
	590 	4697 	: 	54 	36.4302 	; 
	590 	6708 	: 	738.454 	6.8939 	; 
	590 	7520 	: 	801.469 	19.9982 	; 
	591 	4694 	: 	1452.31 	43.3518 	; 
	591 	6996 	: 	417.084 	20.5896 	; 
	591 	7110 	: 	188.182 	32.0384 	; 
	592 	3050 	: 	0 	4.02861 	; 
	593 	612 	: 	452.667 	9.89738 	; 
	593 	3124 	: 	268 	54.7341 	; 
	593 	10277 	: 	0 	inf 	; 
	594 	595 	: 	0 	inf 	; 
	594 	2099 	: 	408.467 	2.03849 	; 
	595 	594 	: 	408.467 	3.02409 	; 
	595 	3196 	: 	0 	inf 	; 
	596 	3228 	: 	601.667 	4.70268 	; 
	596 	3839 	: 	342.884 	0.223737 	; 
	597 	3230 	: 	0 	inf 	; 
	597 	3838 	: 	246.333 	3.42308 	; 
	598 	599 	: 	6124.51 	0.53066 	; 
	598 	8115 	: 	0 	inf 	; 
	599 	598 	: 	0 	inf 	; 
	599 	9563 	: 	6124.51 	9.90372 	; 
	600 	601 	: 	0 	inf 	; 
	600 	2097 	: 	5962.42 	1.84244 	; 
	601 	600 	: 	5962.42 	0.516853 	; 
	601 	8913 	: 	0 	inf 	; 
	602 	604 	: 	0 	inf 	; 
	602 	2091 	: 	0 	inf 	; 
	602 	8115 	: 	6124.51 	2.72648 	; 
	603 	604 	: 	5294.2 	3.22878 	; 
	603 	8116 	: 	0 	inf 	; 
	604 	602 	: 	5294.2 	1.9483 	; 
	604 	603 	: 	0 	inf 	; 
	605 	5246 	: 	0 	inf 	; 
	605 	5539 	: 	5801.73 	1.27777 	; 
	606 	3417 	: 	0 	inf 	; 
	606 	10233 	: 	7488.25 	8.53416 	; 
	607 	1501 	: 	15.6 	37.9531 	; 
	607 	5966 	: 	575.733 	19.6185 	; 
	607 	7200 	: 	54 	17.4884 	; 
	608 	609 	: 	0 	inf 	; 
	608 	1479 	: 	0 	13.0195 	; 
	609 	608 	: 	0 	3.63137 	; 
	609 	2499 	: 	79.2 	14.8242 	; 
	609 	9091 	: 	0 	inf 	; 
	609 	10277 	: 	983.333 	11.8429 	; 
	610 	611 	: 	2311.77 	6.68805 	; 
	610 	2262 	: 	0 	inf 	; 
	610 	2289 	: 	0 	inf 	; 
	611 	610 	: 	0 	inf 	; 
	611 	613 	: 	1877.27 	20.4851 	; 
	611 	2274 	: 	487.1 	0.631108 	; 
	611 	2279 	: 	2531.89 	33.8877 	; 
	612 	593 	: 	0 	inf 	; 
	612 	853 	: 	6 	4.71956 	; 
	612 	2262 	: 	952 	5.77615 	; 
	612 	10277 	: 	34 	0.467158 	; 
	613 	611 	: 	0 	inf 	; 
	613 	614 	: 	1714.87 	38.5788 	; 
	613 	1498 	: 	315 	1.03506 	; 
	613 	10276 	: 	144.4 	45.1118 	; 
	614 	613 	: 	0 	inf 	; 
	614 	616 	: 	1716.27 	21.0876 	; 
	614 	1540 	: 	156.8 	67.9632 	; 
	614 	6403 	: 	29.4 	1.46374 	; 
	615 	616 	: 	0 	inf 	; 
	615 	2592 	: 	0 	inf 	; 
	615 	2598 	: 	1114.13 	0.665205 	; 
	615 	2894 	: 	1964.4 	37.4985 	; 
	616 	585 	: 	1965.03 	20.6376 	; 
	616 	614 	: 	0 	inf 	; 
	616 	615 	: 	2002.67 	1.09445 	; 
	616 	2597 	: 	0 	inf 	; 
	617 	1691 	: 	0 	inf 	; 
	617 	10467 	: 	4325.07 	0.751647 	; 
	618 	840 	: 	2454.5 	11.8175 	; 
	618 	5230 	: 	0 	inf 	; 
	619 	620 	: 	0 	inf 	; 
	619 	638 	: 	844.367 	8.88108 	; 
	620 	619 	: 	844.367 	2.26453 	; 
	620 	5231 	: 	0 	inf 	; 
	621 	622 	: 	0 	inf 	; 
	621 	10470 	: 	3298.87 	1.30622 	; 
	622 	621 	: 	3298.87 	10.8171 	; 
	622 	623 	: 	0 	inf 	; 
	623 	622 	: 	3298.87 	1.21904 	; 
	623 	1151 	: 	0 	inf 	; 
	623 	1161 	: 	0 	inf 	; 
	624 	9763 	: 	0 	inf 	; 
	624 	10028 	: 	9706.45 	0.842463 	; 
	625 	9332 	: 	0 	inf 	; 
	625 	9887 	: 	8622.21 	6.30929 	; 
	625 	10013 	: 	83.6 	8.36856 	; 
	626 	577 	: 	0 	inf 	; 
	626 	9997 	: 	6169.4 	2.05283 	; 
	627 	9368 	: 	575.763 	17.363 	; 
	627 	9377 	: 	6259.84 	11.214 	; 
	627 	9870 	: 	0 	inf 	; 
	628 	629 	: 	0 	inf 	; 
	628 	9959 	: 	0 	inf 	; 
	628 	9973 	: 	4431.1 	6.84188 	; 
	629 	628 	: 	3653.3 	7.79055 	; 
	629 	630 	: 	0 	inf 	; 
	629 	9958 	: 	0 	inf 	; 
	630 	629 	: 	3653.3 	2.02094 	; 
	630 	9965 	: 	0 	inf 	; 
	631 	6028 	: 	153.8 	16.9331 	; 
	631 	9953 	: 	0 	inf 	; 
	631 	9965 	: 	3653.3 	12.0276 	; 
	632 	9953 	: 	3368.45 	9.17065 	; 
	632 	9963 	: 	0 	inf 	; 
	633 	4115 	: 	1367.07 	8.94003 	; 
	633 	5467 	: 	0 	inf 	; 
	634 	5466 	: 	446.733 	4.76944 	; 
	634 	5529 	: 	0 	inf 	; 
	635 	4712 	: 	0 	inf 	; 
	635 	5529 	: 	446.733 	9.49043 	; 
	636 	4140 	: 	0 	inf 	; 
	636 	4149 	: 	1853.45 	1.64163 	; 
	637 	9405 	: 	0 	inf 	; 
	637 	10054 	: 	2203.75 	2.00044 	; 
	638 	619 	: 	0 	inf 	; 
	638 	840 	: 	55.5333 	17.3822 	; 
	638 	841 	: 	879.367 	5.70235 	; 
	638 	9204 	: 	1094 	9.77443 	; 
	639 	1655 	: 	0 	inf 	; 
	639 	8965 	: 	588.333 	13.7839 	; 
	639 	9428 	: 	0 	inf 	; 
	640 	1646 	: 	36 	4.70519 	; 
	640 	4861 	: 	1341.27 	15.2554 	; 
	640 	6303 	: 	0 	inf 	; 
	640 	9241 	: 	1092.53 	0.630786 	; 
	641 	642 	: 	711.872 	8.9311 	; 
	641 	3379 	: 	1324.27 	37.6449 	; 
	641 	6627 	: 	2130.24 	6.28358 	; 
	641 	7575 	: 	616.625 	25.1766 	; 
	642 	641 	: 	611.555 	8.78027 	; 
	642 	643 	: 	711.872 	28.7808 	; 
	642 	6210 	: 	0 	66.8817 	; 
	642 	6211 	: 	0 	inf 	; 
	643 	642 	: 	611.555 	28.2947 	; 
	643 	644 	: 	573.682 	30.7647 	; 
	643 	1603 	: 	1001.74 	28.9672 	; 
	643 	4340 	: 	386.954 	50.3905 	; 
	644 	643 	: 	812.622 	32.253 	; 
	644 	2493 	: 	211.334 	50.1199 	; 
	644 	6230 	: 	264.975 	31.2646 	; 
	644 	9579 	: 	1329.05 	79.7158 	; 
	645 	647 	: 	1365.73 	4.84754 	; 
	645 	1768 	: 	1479.26 	1.02633 	; 
	645 	4338 	: 	1658.8 	19.5391 	; 
	645 	8192 	: 	0 	inf 	; 
	646 	398 	: 	0 	22.1433 	; 
	646 	1768 	: 	289.997 	43.6877 	; 
	646 	6865 	: 	1077.6 	26.8696 	; 
	647 	645 	: 	2552.66 	4.8694 	; 
	647 	3202 	: 	2502.21 	70.7871 	; 
	647 	7546 	: 	474.2 	9.31153 	; 
	647 	8192 	: 	1142.14 	6.63454 	; 
	648 	2521 	: 	1735.27 	36.6031 	; 
	648 	2954 	: 	670.333 	0.458016 	; 
	648 	8594 	: 	0 	inf 	; 
	648 	8597 	: 	2687.18 	28.2438 	; 
	649 	650 	: 	0 	inf 	; 
	649 	7743 	: 	0 	20.0739 	; 
	649 	9963 	: 	3368.45 	12.7168 	; 
	650 	649 	: 	3368.45 	42.5298 	; 
	650 	7725 	: 	0 	inf 	; 
	650 	10072 	: 	0 	inf 	; 
	651 	726 	: 	0 	inf 	; 
	651 	8922 	: 	624.5 	4.68335 	; 
	652 	10039 	: 	0 	inf 	; 
	652 	10042 	: 	1107 	1.59587 	; 
	653 	654 	: 	0 	3.28387 	; 
	653 	9528 	: 	0 	3.12779 	; 
	654 	653 	: 	0 	3.28387 	; 
	654 	9530 	: 	0 	2.76496 	; 
	655 	656 	: 	0 	3.22604 	; 
	655 	9524 	: 	0 	2.86238 	; 
	656 	655 	: 	0 	3.22604 	; 
	656 	9526 	: 	0 	2.87293 	; 
	657 	660 	: 	0 	inf 	; 
	657 	9490 	: 	0 	3.98955 	; 
	658 	659 	: 	0 	1.56317 	; 
	658 	661 	: 	0 	inf 	; 
	659 	658 	: 	0 	inf 	; 
	659 	4220 	: 	0 	7.32083 	; 
	660 	657 	: 	0 	1.58181 	; 
	660 	665 	: 	0 	inf 	; 
	661 	658 	: 	0 	3.17862 	; 
	661 	662 	: 	0 	inf 	; 
	662 	661 	: 	0 	1.6584 	; 
	662 	7903 	: 	0 	inf 	; 
	663 	7907 	: 	0 	19.8964 	; 
	663 	9490 	: 	0 	inf 	; 
	664 	667 	: 	0 	inf 	; 
	664 	4212 	: 	0 	inf 	; 
	664 	4219 	: 	487.333 	12.0737 	; 
	665 	660 	: 	0 	9.0638 	; 
	665 	7904 	: 	0 	inf 	; 
	665 	7910 	: 	0 	inf 	; 
	666 	4212 	: 	402.467 	4.31219 	; 
	666 	6702 	: 	0 	5.56256 	; 
	666 	7904 	: 	0 	12.0598 	; 
	666 	9434 	: 	0 	inf 	; 
	667 	664 	: 	0 	10.1213 	; 
	667 	4211 	: 	0 	inf 	; 
	668 	4209 	: 	0 	inf 	; 
	668 	7910 	: 	0 	6.98021 	; 
	669 	670 	: 	0 	inf 	; 
	669 	7163 	: 	220.4 	4.12229 	; 
	669 	7164 	: 	25.6 	0.666731 	; 
	669 	8848 	: 	828.9 	10.5493 	; 
	670 	669 	: 	0 	22.8322 	; 
	670 	686 	: 	0 	inf 	; 
	670 	8849 	: 	0 	22.4672 	; 
	671 	672 	: 	828.9 	5.76334 	; 
	671 	8848 	: 	0 	inf 	; 
	672 	671 	: 	0 	inf 	; 
	672 	685 	: 	828.9 	13.0984 	; 
	672 	8851 	: 	0 	inf 	; 
	673 	674 	: 	0 	inf 	; 
	673 	8833 	: 	0 	10.2001 	; 
	673 	8847 	: 	0 	inf 	; 
	674 	673 	: 	0 	20.2908 	; 
	674 	675 	: 	0 	inf 	; 
	674 	7165 	: 	397.8 	7.8417 	; 
	674 	9590 	: 	529.067 	0.575913 	; 
	675 	674 	: 	592.6 	12.5172 	; 
	675 	676 	: 	0 	inf 	; 
	676 	675 	: 	592.6 	0.732762 	; 
	676 	677 	: 	0 	inf 	; 
	677 	676 	: 	592.6 	4.55303 	; 
	677 	8850 	: 	0 	3.30139 	; 
	677 	9602 	: 	0 	inf 	; 
	678 	679 	: 	0 	inf 	; 
	678 	681 	: 	0 	inf 	; 
	678 	8832 	: 	592.6 	32.6616 	; 
	679 	678 	: 	76 	9.31266 	; 
	679 	680 	: 	0 	inf 	; 
	680 	679 	: 	76 	8.61945 	; 
	680 	681 	: 	0 	inf 	; 
	680 	5939 	: 	304.733 	1.04924 	; 
	680 	6889 	: 	92 	46.7089 	; 
	681 	678 	: 	516.6 	25.0504 	; 
	681 	680 	: 	227.133 	19.7792 	; 
	681 	702 	: 	0 	inf 	; 
	682 	683 	: 	70.9333 	18.6425 	; 
	682 	684 	: 	0 	inf 	; 
	682 	727 	: 	757.967 	26.6152 	; 
	683 	682 	: 	0 	inf 	; 
	683 	6486 	: 	159.933 	9.68937 	; 
	683 	8031 	: 	904.933 	12.2028 	; 
	683 	9591 	: 	152 	0.829131 	; 
	684 	682 	: 	828.9 	32.9912 	; 
	684 	685 	: 	0 	inf 	; 
	685 	672 	: 	0 	inf 	; 
	685 	684 	: 	828.9 	0.482404 	; 
	686 	670 	: 	0 	8.45028 	; 
	686 	10377 	: 	0 	inf 	; 
	687 	4162 	: 	0 	inf 	; 
	687 	4196 	: 	0 	16.25 	; 
	688 	700 	: 	0 	inf 	; 
	688 	4238 	: 	0 	12.6001 	; 
	688 	9550 	: 	0 	inf 	; 
	689 	4162 	: 	0 	inf 	; 
	689 	4201 	: 	0 	4.82664 	; 
	690 	4199 	: 	228.267 	3.34226 	; 
	690 	7787 	: 	0 	inf 	; 
	691 	693 	: 	487.333 	1.01355 	; 
	691 	4219 	: 	0 	inf 	; 
	692 	4215 	: 	0 	inf 	; 
	692 	9434 	: 	402.467 	8.32066 	; 
	693 	691 	: 	0 	inf 	; 
	693 	4197 	: 	259.067 	8.71213 	; 
	693 	7787 	: 	228.267 	15.394 	; 
	694 	698 	: 	17.2 	24.1732 	; 
	694 	699 	: 	0 	inf 	; 
	694 	4226 	: 	204.733 	13.5903 	; 
	695 	696 	: 	0 	inf 	; 
	695 	4208 	: 	182.067 	13.7573 	; 
	696 	695 	: 	182.067 	1.81488 	; 
	696 	4197 	: 	0 	inf 	; 
	697 	4226 	: 	0 	inf 	; 
	697 	7905 	: 	204.733 	6.78383 	; 
	698 	694 	: 	0 	inf 	; 
	698 	4194 	: 	17.2 	7.53967 	; 
	698 	4249 	: 	0 	20.4972 	; 
	698 	7905 	: 	14 	10.832 	; 
	699 	694 	: 	221.933 	14.1243 	; 
	699 	3892 	: 	0 	inf 	; 
	699 	7906 	: 	0 	47.0979 	; 
	700 	688 	: 	0 	9.55876 	; 
	700 	7909 	: 	0 	inf 	; 
	701 	4234 	: 	0 	inf 	; 
	701 	4250 	: 	0 	1.85072 	; 
	701 	9445 	: 	0 	3.60409 	; 
	701 	9446 	: 	0 	3.40685 	; 
	702 	681 	: 	743.733 	32.5659 	; 
	702 	6114 	: 	0 	inf 	; 
	702 	8831 	: 	0 	inf 	; 
	703 	704 	: 	0 	inf 	; 
	703 	8932 	: 	428.667 	2.07912 	; 
	704 	703 	: 	428.667 	3.13719 	; 
	704 	7886 	: 	0 	inf 	; 
	705 	731 	: 	0 	inf 	; 
	705 	7881 	: 	216 	7.65586 	; 
	706 	7885 	: 	0 	inf 	; 
	706 	9404 	: 	0 	7.50772 	; 
	707 	708 	: 	0 	inf 	; 
	707 	7754 	: 	221.133 	9.4878 	; 
	707 	7887 	: 	0 	2.33575 	; 
	708 	707 	: 	221.133 	4.28961 	; 
	708 	8830 	: 	0 	inf 	; 
	709 	710 	: 	0 	inf 	; 
	709 	734 	: 	3200.23 	4.77596 	; 
	709 	735 	: 	0 	inf 	; 
	710 	709 	: 	1135.6 	19.251 	; 
	710 	711 	: 	0 	inf 	; 
	710 	713 	: 	182.6 	4.45989 	; 
	710 	6437 	: 	343.533 	4.71399 	; 
	711 	710 	: 	122.8 	17.5266 	; 
	711 	736 	: 	2064.63 	10.8199 	; 
	711 	9606 	: 	0 	inf 	; 
	712 	713 	: 	0 	inf 	; 
	712 	9607 	: 	901.267 	0.978096 	; 
	712 	10359 	: 	0 	inf 	; 
	713 	710 	: 	494.166 	4.46762 	; 
	713 	712 	: 	54.6 	17.4504 	; 
	713 	714 	: 	0 	inf 	; 
	713 	6438 	: 	295.8 	11.8759 	; 
	714 	713 	: 	445.533 	21.2417 	; 
	714 	722 	: 	0 	inf 	; 
	714 	5456 	: 	846.667 	10.7568 	; 
	715 	716 	: 	0 	inf 	; 
	715 	10042 	: 	0 	inf 	; 
	715 	10044 	: 	1131.8 	2.81379 	; 
	716 	715 	: 	24.8 	19.1517 	; 
	716 	717 	: 	0 	inf 	; 
	716 	721 	: 	185.2 	8.44139 	; 
	716 	6792 	: 	263.2 	25.0515 	; 
	717 	716 	: 	167.2 	9.99459 	; 
	717 	10037 	: 	0 	inf 	; 
	718 	719 	: 	0 	inf 	; 
	718 	772 	: 	2920.07 	15.0673 	; 
	718 	10041 	: 	0 	inf 	; 
	719 	718 	: 	218.933 	4.32491 	; 
	719 	720 	: 	0 	inf 	; 
	720 	719 	: 	218.933 	1.88053 	; 
	720 	721 	: 	0 	inf 	; 
	721 	716 	: 	273.2 	8.48426 	; 
	721 	720 	: 	218.933 	10.7193 	; 
	721 	733 	: 	0 	inf 	; 
	721 	6793 	: 	189.2 	63.2612 	; 
	722 	714 	: 	1292.2 	14.8481 	; 
	722 	723 	: 	0 	inf 	; 
	722 	10047 	: 	0 	inf 	; 
	723 	722 	: 	160.4 	10.0512 	; 
	723 	724 	: 	0 	inf 	; 
	724 	723 	: 	160.4 	1.69364 	; 
	724 	725 	: 	0 	inf 	; 
	725 	724 	: 	160.4 	19.4111 	; 
	725 	8920 	: 	0 	inf 	; 
	726 	651 	: 	624.5 	1.87133 	; 
	726 	734 	: 	0 	inf 	; 
	727 	682 	: 	0 	inf 	; 
	727 	731 	: 	1974.77 	43.605 	; 
	727 	8031 	: 	0 	inf 	; 
	728 	8932 	: 	0 	inf 	; 
	728 	9404 	: 	0 	inf 	; 
	728 	9604 	: 	2187.43 	1.88785 	; 
	729 	730 	: 	0 	inf 	; 
	729 	8932 	: 	1758.77 	2.07092 	; 
	730 	729 	: 	1758.77 	1.33049 	; 
	730 	731 	: 	0 	inf 	; 
	731 	705 	: 	216 	15.5542 	; 
	731 	727 	: 	0 	inf 	; 
	731 	730 	: 	1758.77 	11.9587 	; 
	732 	733 	: 	0 	inf 	; 
	732 	10043 	: 	2701.13 	1.55052 	; 
	733 	721 	: 	81 	20.5218 	; 
	733 	732 	: 	2701.13 	12.7513 	; 
	733 	10045 	: 	0 	inf 	; 
	734 	709 	: 	0 	inf 	; 
	734 	726 	: 	624.5 	56.0553 	; 
	734 	10048 	: 	2782.13 	18.1308 	; 
	735 	709 	: 	2064.63 	12.02 	; 
	735 	736 	: 	0 	inf 	; 
	736 	711 	: 	0 	inf 	; 
	736 	735 	: 	2064.63 	1.53609 	; 
	737 	738 	: 	0 	inf 	; 
	737 	5455 	: 	2187.43 	12.3569 	; 
	738 	737 	: 	2187.43 	1.42748 	; 
	738 	9605 	: 	0 	inf 	; 
	739 	8920 	: 	160.4 	9.40097 	; 
	739 	9026 	: 	2530.37 	9.5696 	; 
	739 	10053 	: 	0 	inf 	; 
	740 	4152 	: 	0 	inf 	; 
	740 	10053 	: 	2690.77 	1.11331 	; 
	741 	745 	: 	86.8 	24.2507 	; 
	741 	771 	: 	5413.7 	11.8632 	; 
	741 	772 	: 	0 	inf 	; 
	742 	743 	: 	0 	inf 	; 
	742 	745 	: 	1140.13 	7.44902 	; 
	742 	6160 	: 	586 	18.6797 	; 
	742 	8824 	: 	108.933 	22.809 	; 
	743 	742 	: 	526.8 	21.2547 	; 
	743 	8820 	: 	0 	inf 	; 
	743 	8821 	: 	2489.12 	6.95182 	; 
	744 	745 	: 	0 	inf 	; 
	744 	769 	: 	6553.83 	11.7979 	; 
	744 	770 	: 	0 	inf 	; 
	745 	741 	: 	0 	inf 	; 
	745 	742 	: 	86.8 	5.94281 	; 
	745 	744 	: 	1140.13 	18.5266 	; 
	746 	747 	: 	0 	inf 	; 
	746 	753 	: 	0 	inf 	; 
	746 	775 	: 	8889.69 	13.6009 	; 
	747 	746 	: 	1124.03 	22.8066 	; 
	747 	7190 	: 	46 	13.3519 	; 
	747 	7563 	: 	54 	3.99356 	; 
	748 	751 	: 	0 	inf 	; 
	748 	5773 	: 	360.6 	9.70799 	; 
	748 	8034 	: 	1097.31 	3.07867 	; 
	748 	8815 	: 	0 	inf 	; 
	749 	8034 	: 	0 	inf 	; 
	749 	8039 	: 	0 	inf 	; 
	749 	8816 	: 	3402.19 	13.7202 	; 
	750 	751 	: 	0 	inf 	; 
	750 	8047 	: 	235.533 	5.22882 	; 
	751 	748 	: 	178.6 	4.54097 	; 
	751 	750 	: 	235.533 	2.81 	; 
	751 	9599 	: 	0 	inf 	; 
	752 	753 	: 	0 	inf 	; 
	752 	7136 	: 	4 	33.7804 	; 
	752 	7190 	: 	474.726 	14.7884 	; 
	753 	746 	: 	7765.66 	43.95 	; 
	753 	752 	: 	349.326 	19.9803 	; 
	753 	762 	: 	0 	inf 	; 
	754 	755 	: 	0 	inf 	; 
	754 	7684 	: 	551.133 	9.31933 	; 
	755 	754 	: 	551.133 	1.86262 	; 
	755 	8003 	: 	0 	inf 	; 
	756 	766 	: 	0 	inf 	; 
	756 	9616 	: 	0 	inf 	; 
	756 	9617 	: 	6887.12 	2.52806 	; 
	757 	758 	: 	0 	inf 	; 
	757 	8818 	: 	3015.92 	1.2302 	; 
	757 	10455 	: 	0 	inf 	; 
	758 	757 	: 	418.267 	16.3673 	; 
	758 	3668 	: 	0 	inf 	; 
	758 	8052 	: 	0 	inf 	; 
	759 	760 	: 	0 	inf 	; 
	759 	8049 	: 	0 	11.6584 	; 
	760 	759 	: 	0 	2.08413 	; 
	760 	764 	: 	0 	inf 	; 
	761 	8816 	: 	0 	inf 	; 
	761 	8817 	: 	2597.65 	6.19738 	; 
	762 	753 	: 	8114.99 	10.2196 	; 
	762 	763 	: 	0 	inf 	; 
	762 	9617 	: 	0 	inf 	; 
	763 	762 	: 	1227.86 	27.8282 	; 
	763 	765 	: 	557.363 	8.14861 	; 
	763 	6071 	: 	0 	inf 	; 
	764 	760 	: 	0 	12.6568 	; 
	764 	765 	: 	804.533 	14.042 	; 
	764 	8816 	: 	0 	inf 	; 
	765 	763 	: 	0 	inf 	; 
	765 	764 	: 	0 	inf 	; 
	765 	8021 	: 	1361.9 	2.33455 	; 
	766 	756 	: 	6002.7 	3.80982 	; 
	766 	10456 	: 	0 	inf 	; 
	767 	10454 	: 	0 	inf 	; 
	767 	10456 	: 	6002.7 	12.3937 	; 
	768 	8003 	: 	6553.83 	1.89605 	; 
	768 	9614 	: 	0 	inf 	; 
	769 	744 	: 	0 	inf 	; 
	769 	9612 	: 	6553.83 	0.984314 	; 
	770 	744 	: 	5413.7 	8.42735 	; 
	770 	9610 	: 	0 	inf 	; 
	771 	741 	: 	0 	inf 	; 
	771 	9608 	: 	5413.7 	4.10392 	; 
	772 	718 	: 	0 	inf 	; 
	772 	741 	: 	5500.5 	7.84005 	; 
	772 	9024 	: 	0 	inf 	; 
	773 	774 	: 	0 	inf 	; 
	773 	7671 	: 	861.011 	8.58923 	; 
	774 	773 	: 	861.011 	0.771274 	; 
	774 	775 	: 	0 	inf 	; 
	775 	746 	: 	0 	inf 	; 
	775 	774 	: 	861.011 	8.32992 	; 
	775 	7993 	: 	8028.68 	6.40231 	; 
	776 	777 	: 	0 	inf 	; 
	776 	8001 	: 	706.6 	0.829232 	; 
	776 	9597 	: 	0 	inf 	; 
	777 	776 	: 	0 	9.1383 	; 
	777 	778 	: 	0 	inf 	; 
	778 	777 	: 	0 	2.03649 	; 
	778 	779 	: 	0 	inf 	; 
	779 	778 	: 	0 	12.4961 	; 
	779 	780 	: 	1233.44 	3.90227 	; 
	779 	7994 	: 	0 	inf 	; 
	780 	779 	: 	0 	inf 	; 
	780 	781 	: 	0 	inf 	; 
	780 	3126 	: 	1650.7 	6.98238 	; 
	780 	8843 	: 	147.2 	1.02073 	; 
	781 	780 	: 	564.467 	18.2905 	; 
	781 	782 	: 	0 	inf 	; 
	782 	781 	: 	564.467 	2.40013 	; 
	782 	784 	: 	2650.85 	1.80107 	; 
	782 	2617 	: 	0 	inf 	; 
	783 	7991 	: 	0 	inf 	; 
	783 	8852 	: 	9416.08 	2.62129 	; 
	784 	782 	: 	0 	inf 	; 
	784 	8814 	: 	2650.85 	9.0993 	; 
	785 	786 	: 	0 	inf 	; 
	785 	8813 	: 	921.6 	16.9685 	; 
	786 	785 	: 	840.467 	2.3587 	; 
	786 	7990 	: 	0 	inf 	; 
	786 	9145 	: 	47.426 	1.5126 	; 
	787 	788 	: 	0 	inf 	; 
	787 	789 	: 	0 	inf 	; 
	787 	8004 	: 	68.4 	15.6974 	; 
	788 	787 	: 	68.4 	2.28707 	; 
	788 	789 	: 	498.533 	3.68293 	; 
	788 	6569 	: 	321.626 	33.4011 	; 
	789 	787 	: 	0 	2.15626 	; 
	789 	788 	: 	321.626 	3.47977 	; 
	789 	790 	: 	0 	9.25704 	; 
	789 	5730 	: 	653.267 	1.98302 	; 
	790 	789 	: 	428.933 	9.61971 	; 
	790 	8043 	: 	0 	inf 	; 
	791 	8040 	: 	0 	inf 	; 
	791 	8046 	: 	117.6 	3.43532 	; 
	791 	8812 	: 	1003.26 	18.9375 	; 
	792 	8019 	: 	0 	inf 	; 
	792 	8040 	: 	461.725 	0.852229 	; 
	792 	9866 	: 	0 	inf 	; 
	792 	9914 	: 	836.4 	17.0687 	; 
	793 	3676 	: 	0 	inf 	; 
	793 	8043 	: 	3575.85 	26.7166 	; 
	793 	10460 	: 	0 	inf 	; 
	794 	795 	: 	0 	inf 	; 
	794 	3676 	: 	854.667 	0.524675 	; 
	794 	8033 	: 	0 	inf 	; 
	794 	8048 	: 	712.647 	2.04851 	; 
	795 	794 	: 	1449.71 	11.5484 	; 
	795 	10460 	: 	0 	inf 	; 
	796 	805 	: 	0 	inf 	; 
	796 	812 	: 	6301.01 	4.08913 	; 
	796 	8203 	: 	0 	inf 	; 
	797 	798 	: 	0 	inf 	; 
	797 	8203 	: 	1749.6 	4.53303 	; 
	798 	797 	: 	1749.6 	33.7019 	; 
	798 	4806 	: 	3518.45 	7.89524 	; 
	798 	5584 	: 	0 	inf 	; 
	799 	304 	: 	0 	inf 	; 
	799 	808 	: 	425.2 	1.0991 	; 
	800 	304 	: 	425.2 	2.57199 	; 
	800 	305 	: 	0 	inf 	; 
	800 	809 	: 	0 	inf 	; 
	801 	298 	: 	0 	inf 	; 
	801 	8037 	: 	1471.18 	1.97232 	; 
	802 	298 	: 	1471.18 	3.565 	; 
	802 	803 	: 	0 	inf 	; 
	803 	802 	: 	1471.18 	4.76249 	; 
	803 	8022 	: 	0 	inf 	; 
	804 	307 	: 	530.22 	6.32713 	; 
	804 	8022 	: 	1471.18 	6.98525 	; 
	804 	8035 	: 	0 	inf 	; 
	805 	796 	: 	4551.41 	6.00433 	; 
	805 	8037 	: 	0 	inf 	; 
	806 	8204 	: 	0 	inf 	; 
	806 	9920 	: 	2014.64 	2.65327 	; 
	807 	2251 	: 	3397.03 	6.12634 	; 
	807 	2252 	: 	0 	inf 	; 
	808 	301 	: 	0 	inf 	; 
	808 	799 	: 	0 	inf 	; 
	808 	8029 	: 	548.067 	17.503 	; 
	809 	800 	: 	224.133 	4.06337 	; 
	809 	810 	: 	0 	inf 	; 
	810 	809 	: 	224.133 	2.76895 	; 
	810 	10343 	: 	0 	inf 	; 
	811 	5584 	: 	5268.05 	1.50323 	; 
	811 	8311 	: 	0 	inf 	; 
	812 	796 	: 	0 	inf 	; 
	812 	8857 	: 	6301.01 	12.7626 	; 
	813 	3447 	: 	0 	inf 	; 
	813 	3449 	: 	194.731 	10.4091 	; 
	813 	5369 	: 	376.133 	14.6749 	; 
	814 	815 	: 	451.067 	13.6456 	; 
	814 	7502 	: 	366.6 	2.09658 	; 
	814 	7801 	: 	402.9 	5.29176 	; 
	815 	814 	: 	0 	inf 	; 
	815 	9800 	: 	451.067 	22.239 	; 
	815 	9802 	: 	0 	inf 	; 
	815 	9823 	: 	48.4 	12.7925 	; 
	816 	9800 	: 	10144.3 	26.9241 	; 
	816 	10341 	: 	0 	inf 	; 
	817 	7712 	: 	932.433 	14.6103 	; 
	817 	8303 	: 	0 	inf 	; 
	817 	10341 	: 	10192.7 	14.0289 	; 
	818 	7801 	: 	0 	inf 	; 
	818 	10461 	: 	5268.05 	1.00388 	; 
	818 	10462 	: 	0 	inf 	; 
	819 	8169 	: 	0 	inf 	; 
	819 	10462 	: 	4489.05 	4.66552 	; 
	820 	821 	: 	0 	inf 	; 
	820 	5706 	: 	611.8 	9.84697 	; 
	820 	5912 	: 	0 	inf 	; 
	821 	820 	: 	272.2 	14.3718 	; 
	821 	8309 	: 	0 	inf 	; 
	822 	8302 	: 	4489.05 	0.851677 	; 
	822 	9574 	: 	0 	inf 	; 
	823 	7196 	: 	0 	inf 	; 
	823 	7197 	: 	0 	27.2139 	; 
	823 	9787 	: 	1359.26 	8.23096 	; 
	824 	8304 	: 	11954.6 	12.9246 	; 
	824 	9792 	: 	0 	inf 	; 
	825 	5581 	: 	9187.63 	16.6944 	; 
	825 	10340 	: 	0 	inf 	; 
	826 	827 	: 	0 	inf 	; 
	826 	5579 	: 	0 	inf 	; 
	826 	9786 	: 	5629.91 	0.749459 	; 
	827 	826 	: 	803.642 	19.7758 	; 
	827 	7024 	: 	0 	35.5063 	; 
	827 	7277 	: 	0 	inf 	; 
	828 	829 	: 	0 	inf 	; 
	828 	7277 	: 	488 	3.62186 	; 
	829 	828 	: 	488 	17.2231 	; 
	829 	5578 	: 	4826.27 	12.772 	; 
	829 	9794 	: 	0 	inf 	; 
	830 	201 	: 	0 	inf 	; 
	830 	237 	: 	3310.85 	29.8837 	; 
	830 	831 	: 	0 	inf 	; 
	831 	830 	: 	-7.10543e-15 	22.3042 	; 
	831 	832 	: 	0 	inf 	; 
	831 	6042 	: 	0 	inf 	; 
	832 	831 	: 	0 	2.96218 	; 
	832 	6042 	: 	6 	4.88471 	; 
	832 	6389 	: 	674.318 	15.6998 	; 
	833 	3664 	: 	44 	5.21588 	; 
	833 	6829 	: 	0 	10.7969 	; 
	833 	7799 	: 	319.624 	3.94344 	; 
	834 	835 	: 	0 	inf 	; 
	834 	7301 	: 	764.001 	18.5973 	; 
	835 	834 	: 	764.001 	1.73911 	; 
	835 	9224 	: 	0 	inf 	; 
	836 	195 	: 	4074.85 	13.8403 	; 
	836 	10473 	: 	0 	inf 	; 
	837 	192 	: 	4059.25 	1.6989 	; 
	837 	838 	: 	0 	inf 	; 
	838 	207 	: 	1304.14 	26.3922 	; 
	838 	837 	: 	4059.25 	15.1281 	; 
	838 	3669 	: 	0 	inf 	; 
	839 	3973 	: 	7646.07 	17.5433 	; 
	839 	7857 	: 	0 	inf 	; 
	839 	7859 	: 	0 	inf 	; 
	840 	618 	: 	0 	inf 	; 
	840 	638 	: 	0 	inf 	; 
	840 	1627 	: 	2510.03 	3.85563 	; 
	841 	638 	: 	1136.33 	5.70592 	; 
	841 	8332 	: 	0 	76.4729 	; 
	841 	9203 	: 	491.867 	33.0306 	; 
	842 	843 	: 	49 	20.0125 	; 
	842 	1621 	: 	0 	inf 	; 
	842 	1691 	: 	4325.07 	14.1593 	; 
	843 	842 	: 	0 	inf 	; 
	843 	7509 	: 	0 	40.0364 	; 
	843 	7769 	: 	49 	1.06272 	; 
	844 	1145 	: 	750.133 	5.99823 	; 
	844 	1149 	: 	3082.8 	4.57182 	; 
	844 	4744 	: 	0 	inf 	; 
	845 	846 	: 	0 	inf 	; 
	845 	3921 	: 	0 	inf 	; 
	845 	10140 	: 	13566.9 	3.10364 	; 
	846 	845 	: 	1138.59 	27.8942 	; 
	846 	1493 	: 	0 	75.3653 	; 
	846 	1689 	: 	0 	inf 	; 
	847 	5402 	: 	2251.6 	17.2491 	; 
	847 	9811 	: 	0 	inf 	; 
	848 	1436 	: 	464.333 	7.28622 	; 
	848 	5401 	: 	0 	inf 	; 
	849 	9810 	: 	8599.49 	2.22839 	; 
	849 	10387 	: 	0 	inf 	; 
	850 	1497 	: 	0 	inf 	; 
	850 	2578 	: 	4381.27 	0.591899 	; 
	850 	2579 	: 	0 	inf 	; 
	851 	2581 	: 	5043.93 	27.1643 	; 
	851 	2609 	: 	0 	inf 	; 
	851 	5253 	: 	0 	inf 	; 
	852 	854 	: 	11332.1 	20.5452 	; 
	852 	8315 	: 	0 	inf 	; 
	852 	10337 	: 	0 	inf 	; 
	853 	612 	: 	8 	4.71956 	; 
	853 	857 	: 	0 	inf 	; 
	853 	2288 	: 	6 	43.6968 	; 
	854 	852 	: 	0 	inf 	; 
	854 	859 	: 	10347.6 	13.3345 	; 
	854 	9092 	: 	984.533 	14.7409 	; 
	855 	856 	: 	0 	inf 	; 
	855 	858 	: 	0 	7.66296 	; 
	856 	855 	: 	0 	3.77614 	; 
	856 	9091 	: 	0 	inf 	; 
	857 	853 	: 	0 	7.99464 	; 
	857 	858 	: 	0 	inf 	; 
	858 	855 	: 	0 	inf 	; 
	858 	857 	: 	0 	3.10749 	; 
	859 	854 	: 	0 	inf 	; 
	859 	9013 	: 	10347.6 	1.64352 	; 
	860 	566 	: 	0 	inf 	; 
	860 	861 	: 	2999.35 	0.894144 	; 
	860 	2600 	: 	2420.67 	9.59978 	; 
	861 	860 	: 	2573.81 	0.890346 	; 
	861 	2601 	: 	2999.35 	18.3898 	; 
	862 	863 	: 	0 	inf 	; 
	862 	10270 	: 	1646.22 	2.83995 	; 
	863 	568 	: 	0 	inf 	; 
	863 	862 	: 	1646.22 	1.16174 	; 
	864 	865 	: 	486.267 	2.95081 	; 
	864 	10463 	: 	0 	inf 	; 
	865 	864 	: 	0 	inf 	; 
	865 	10384 	: 	486.267 	6.76724 	; 
	866 	4510 	: 	0 	8.04285 	; 
	866 	4511 	: 	0 	1.77528 	; 
	867 	443 	: 	0 	inf 	; 
	867 	2259 	: 	1965.03 	12.8449 	; 
	867 	2594 	: 	0 	4.48727 	; 
	867 	7877 	: 	0 	inf 	; 
	868 	2599 	: 	2772.41 	25.1978 	; 
	868 	2894 	: 	0 	inf 	; 
	869 	1927 	: 	7588.87 	0.909221 	; 
	869 	1928 	: 	0 	inf 	; 
	869 	1932 	: 	0 	inf 	; 
	870 	2599 	: 	0 	inf 	; 
	870 	10335 	: 	2711.1 	27.307 	; 
	871 	874 	: 	0 	inf 	; 
	871 	8113 	: 	3136.33 	0.19453 	; 
	872 	873 	: 	0 	inf 	; 
	872 	8899 	: 	1204.47 	12.0515 	; 
	873 	872 	: 	1204.47 	0.791126 	; 
	873 	8900 	: 	0 	inf 	; 
	874 	871 	: 	3136.33 	0.791927 	; 
	874 	1487 	: 	0 	inf 	; 
	875 	6955 	: 	2403.35 	42.7816 	; 
	875 	6985 	: 	2950.26 	417.744 	; 
	876 	4042 	: 	768.5 	3.29131 	; 
	876 	5322 	: 	98.6 	11.3966 	; 
	877 	439 	: 	0 	16.3182 	; 
	878 	879 	: 	0 	inf 	; 
	878 	2421 	: 	627.773 	1.7637 	; 
	878 	8791 	: 	2315.62 	9.82934 	; 
	879 	878 	: 	1258.17 	4.45928 	; 
	879 	880 	: 	0 	inf 	; 
	880 	879 	: 	1258.17 	4.07388 	; 
	880 	881 	: 	0 	inf 	; 
	881 	245 	: 	0 	inf 	; 
	881 	880 	: 	1258.17 	4.84013 	; 
	881 	2424 	: 	4763.96 	15.8206 	; 
	882 	883 	: 	0 	inf 	; 
	882 	1787 	: 	730.505 	0.179202 	; 
	883 	882 	: 	730.505 	1.93547 	; 
	883 	6568 	: 	0 	inf 	; 
	884 	5024 	: 	0 	2.33902 	; 
	884 	8790 	: 	597.533 	1.38991 	; 
	885 	2428 	: 	0 	inf 	; 
	885 	8790 	: 	2373.06 	4.18535 	; 
	886 	5832 	: 	169.8 	4.18381 	; 
	886 	8740 	: 	0 	2.67942 	; 
	887 	4414 	: 	15.6 	1.54022 	; 
	887 	7483 	: 	0 	8.24536 	; 
	888 	7483 	: 	14.8 	12.2623 	; 
	888 	7484 	: 	1353.66 	1.30636 	; 
	889 	1477 	: 	2308.48 	8.5226 	; 
	889 	10241 	: 	4009.96 	3.1454 	; 
	889 	10242 	: 	0 	inf 	; 
	890 	912 	: 	0 	inf 	; 
	890 	1624 	: 	3192.8 	11.2626 	; 
	891 	1625 	: 	0 	inf 	; 
	891 	5229 	: 	2779.83 	4.25506 	; 
	892 	3615 	: 	97.4 	0.427335 	; 
	892 	10279 	: 	113 	2.58224 	; 
	893 	2724 	: 	97.4 	1.18036 	; 
	893 	3615 	: 	113 	4.07693 	; 
	894 	909 	: 	2665.53 	24.0165 	; 
	894 	1143 	: 	0 	inf 	; 
	894 	7735 	: 	0 	19.2825 	; 
	895 	904 	: 	0 	inf 	; 
	895 	3672 	: 	0 	inf 	; 
	895 	5228 	: 	2358.23 	6.86343 	; 
	896 	1417 	: 	63.3333 	2.77272 	; 
	896 	1419 	: 	0 	inf 	; 
	897 	898 	: 	0 	inf 	; 
	897 	10500 	: 	2658.29 	3.22402 	; 
	898 	897 	: 	2658.29 	0.842154 	; 
	898 	2053 	: 	0 	inf 	; 
	898 	3326 	: 	0 	inf 	; 
	899 	908 	: 	177.733 	17.4455 	; 
	899 	7735 	: 	26 	13.9507 	; 
	899 	9100 	: 	165.4 	27.7081 	; 
	900 	901 	: 	265.467 	17.5411 	; 
	900 	905 	: 	1.33333 	10.9489 	; 
	900 	908 	: 	191.4 	2.94664 	; 
	901 	900 	: 	0 	inf 	; 
	901 	910 	: 	0 	inf 	; 
	901 	911 	: 	2931 	4.50065 	; 
	902 	903 	: 	0 	inf 	; 
	902 	904 	: 	2332.23 	6.5373 	; 
	903 	902 	: 	2332.23 	13.3962 	; 
	903 	907 	: 	186.6 	15.5541 	; 
	903 	915 	: 	0 	inf 	; 
	904 	895 	: 	2332.23 	26.0533 	; 
	904 	902 	: 	0 	inf 	; 
	905 	900 	: 	280.467 	10.9489 	; 
	905 	906 	: 	0 	2.52783 	; 
	905 	907 	: 	0 	inf 	; 
	905 	6095 	: 	32.5333 	66.3104 	; 
	906 	905 	: 	0 	2.52783 	; 
	906 	907 	: 	0 	inf 	; 
	906 	3584 	: 	0 	6.45439 	; 
	907 	903 	: 	0 	inf 	; 
	907 	905 	: 	186.6 	2.77418 	; 
	907 	906 	: 	0 	2.43884 	; 
	908 	899 	: 	191.4 	17.4455 	; 
	908 	900 	: 	177.733 	2.94664 	; 
	909 	894 	: 	0 	inf 	; 
	909 	910 	: 	2665.53 	5.76494 	; 
	910 	901 	: 	2665.53 	8.39499 	; 
	910 	909 	: 	0 	inf 	; 
	911 	901 	: 	0 	inf 	; 
	911 	913 	: 	2899.4 	13.7242 	; 
	911 	920 	: 	31.6 	20.5013 	; 
	912 	890 	: 	3192.8 	4.72186 	; 
	912 	914 	: 	0 	inf 	; 
	912 	920 	: 	0 	inf 	; 
	913 	911 	: 	0 	inf 	; 
	913 	914 	: 	2899.4 	1.48267 	; 
	914 	912 	: 	2899.4 	12.7449 	; 
	914 	913 	: 	0 	inf 	; 
	915 	903 	: 	2518.83 	3.97703 	; 
	915 	916 	: 	0 	inf 	; 
	915 	919 	: 	0 	inf 	; 
	916 	915 	: 	2496.83 	9.33756 	; 
	916 	917 	: 	0 	inf 	; 
	917 	916 	: 	2496.83 	1.48082 	; 
	917 	918 	: 	0 	inf 	; 
	918 	917 	: 	2496.83 	11.3416 	; 
	918 	919 	: 	283 	16.9847 	; 
	918 	5229 	: 	0 	inf 	; 
	919 	915 	: 	22 	15.9477 	; 
	919 	918 	: 	0 	inf 	; 
	919 	920 	: 	283 	8.79611 	; 
	919 	10282 	: 	31.6 	15.6352 	; 
	920 	911 	: 	0 	inf 	; 
	920 	912 	: 	293.4 	21.6194 	; 
	920 	919 	: 	31.6 	8.7313 	; 
	920 	921 	: 	283 	16.0995 	; 
	921 	920 	: 	293.4 	16.118 	; 
	921 	922 	: 	283 	2.66894 	; 
	922 	921 	: 	293.4 	2.67199 	; 
	922 	2714 	: 	283 	1.35582 	; 
	922 	10281 	: 	0 	43.11 	; 
	923 	5248 	: 	1207.1 	26.5803 	; 
	923 	5286 	: 	615.667 	7.82184 	; 
	924 	5038 	: 	0 	inf 	; 
	924 	6272 	: 	4375.29 	9.06775 	; 
	924 	8604 	: 	2586.17 	1.03231 	; 
	925 	926 	: 	0 	inf 	; 
	925 	7758 	: 	22.6563 	4.27666 	; 
	926 	925 	: 	22.6563 	1.43526 	; 
	926 	9640 	: 	0 	inf 	; 
	927 	930 	: 	2778.39 	0.907649 	; 
	927 	9639 	: 	0 	inf 	; 
	928 	929 	: 	0 	inf 	; 
	928 	5419 	: 	2778.39 	2.69231 	; 
	929 	928 	: 	2778.39 	2.18371 	; 
	929 	930 	: 	0 	inf 	; 
	930 	927 	: 	0 	inf 	; 
	930 	929 	: 	2778.39 	2.65244 	; 
	931 	7758 	: 	985.7 	15.8856 	; 
	931 	8844 	: 	0 	inf 	; 
	932 	941 	: 	0 	inf 	; 
	932 	1182 	: 	1744.31 	17.655 	; 
	932 	9640 	: 	0 	inf 	; 
	933 	1179 	: 	580.067 	12.2937 	; 
	933 	7757 	: 	1513.07 	14.3829 	; 
	933 	9624 	: 	0 	inf 	; 
	934 	951 	: 	8714.61 	7.15746 	; 
	934 	2806 	: 	0 	inf 	; 
	935 	5420 	: 	4029.47 	0.302326 	; 
	935 	9627 	: 	0 	inf 	; 
	936 	5420 	: 	0 	inf 	; 
	936 	8809 	: 	4029.47 	2.56653 	; 
	937 	939 	: 	4029.47 	7.74377 	; 
	937 	8809 	: 	0 	inf 	; 
	938 	939 	: 	0 	inf 	; 
	938 	7981 	: 	5592.32 	15.5523 	; 
	939 	937 	: 	0 	inf 	; 
	939 	938 	: 	5592.32 	4.33782 	; 
	939 	940 	: 	0 	inf 	; 
	940 	939 	: 	1562.86 	6.10475 	; 
	940 	941 	: 	0 	inf 	; 
	940 	8011 	: 	0 	inf 	; 
	941 	932 	: 	430.326 	10.0673 	; 
	941 	940 	: 	1462.07 	11.2696 	; 
	941 	7757 	: 	0 	inf 	; 
	942 	8844 	: 	985.7 	3.91746 	; 
	942 	9630 	: 	4535.17 	2.6032 	; 
	942 	9643 	: 	0 	inf 	; 
	943 	5429 	: 	5621.65 	1.27088 	; 
	943 	9644 	: 	0 	inf 	; 
	944 	946 	: 	0 	inf 	; 
	944 	9644 	: 	5000.68 	9.2332 	; 
	945 	947 	: 	5000.68 	1.00706 	; 
	945 	9298 	: 	0 	inf 	; 
	946 	944 	: 	5000.68 	0.678634 	; 
	946 	947 	: 	0 	inf 	; 
	947 	945 	: 	0 	inf 	; 
	947 	946 	: 	5000.68 	2.22788 	; 
	948 	955 	: 	9947.5 	0.626952 	; 
	948 	956 	: 	0 	inf 	; 
	949 	7700 	: 	454.933 	23.1408 	; 
	949 	9637 	: 	0 	inf 	; 
	950 	573 	: 	1687.83 	7.251 	; 
	950 	1181 	: 	0 	inf 	; 
	951 	573 	: 	8714.61 	4.38647 	; 
	951 	934 	: 	0 	inf 	; 
	952 	953 	: 	0 	inf 	; 
	952 	970 	: 	9947.5 	1.2664 	; 
	953 	952 	: 	9947.5 	19.8006 	; 
	953 	954 	: 	0 	inf 	; 
	954 	953 	: 	9947.5 	1.21201 	; 
	954 	955 	: 	0 	inf 	; 
	955 	948 	: 	0 	inf 	; 
	955 	954 	: 	9947.5 	3.32344 	; 
	956 	948 	: 	9947.5 	3.62264 	; 
	956 	957 	: 	0 	inf 	; 
	957 	956 	: 	9947.5 	2.68495 	; 
	957 	958 	: 	0 	inf 	; 
	958 	957 	: 	9947.5 	6.1912 	; 
	958 	9637 	: 	0 	inf 	; 
	959 	960 	: 	623.738 	53.945 	; 
	959 	2955 	: 	952.415 	93.0244 	; 
	959 	5745 	: 	449.166 	33.6949 	; 
	959 	6244 	: 	169 	34.9659 	; 
	960 	959 	: 	621.381 	53.927 	; 
	960 	1197 	: 	1239.85 	28.2068 	; 
	960 	5758 	: 	183.8 	37.4202 	; 
	960 	6563 	: 	1311.52 	20.5634 	; 
	961 	962 	: 	543.6 	18.3368 	; 
	961 	7700 	: 	286.733 	14.2266 	; 
	962 	961 	: 	398.733 	18.1683 	; 
	962 	5909 	: 	543.6 	9.78199 	; 
	963 	964 	: 	0 	inf 	; 
	963 	9298 	: 	4930.68 	0.622241 	; 
	964 	963 	: 	4930.68 	1.13529 	; 
	964 	965 	: 	0 	inf 	; 
	965 	964 	: 	4930.68 	12.955 	; 
	965 	966 	: 	0 	inf 	; 
	966 	965 	: 	4930.68 	1.59364 	; 
	966 	8013 	: 	0 	inf 	; 
	967 	968 	: 	0 	inf 	; 
	967 	9298 	: 	70 	0.937276 	; 
	968 	967 	: 	70 	1.69304 	; 
	968 	972 	: 	0 	inf 	; 
	969 	970 	: 	0 	inf 	; 
	969 	971 	: 	70 	13.6664 	; 
	969 	7072 	: 	111.2 	18.9881 	; 
	970 	952 	: 	0 	inf 	; 
	970 	969 	: 	111.2 	30.173 	; 
	970 	9299 	: 	9836.3 	16.3145 	; 
	971 	969 	: 	0 	inf 	; 
	971 	972 	: 	70 	3.1189 	; 
	972 	968 	: 	70 	14.9173 	; 
	972 	971 	: 	0 	inf 	; 
	973 	1885 	: 	54.6667 	9.52784 	; 
	973 	1886 	: 	0 	inf 	; 
	974 	1020 	: 	522.278 	12.9093 	; 
	974 	1087 	: 	0 	inf 	; 
	975 	976 	: 	0 	inf 	; 
	975 	4840 	: 	386.733 	8.6375 	; 
	976 	975 	: 	386.733 	3.90113 	; 
	976 	997 	: 	0 	inf 	; 
	977 	5271 	: 	0 	inf 	; 
	977 	7755 	: 	10 	16.4644 	; 
	978 	979 	: 	0 	inf 	; 
	978 	1062 	: 	0 	inf 	; 
	978 	3840 	: 	7080.68 	6.19845 	; 
	979 	978 	: 	5896.34 	11.4958 	; 
	979 	980 	: 	0 	inf 	; 
	980 	979 	: 	5896.34 	1.70811 	; 
	980 	1075 	: 	0 	inf 	; 
	981 	1053 	: 	0 	inf 	; 
	981 	1895 	: 	0 	inf 	; 
	981 	5150 	: 	5243.29 	6.9789 	; 
	982 	4958 	: 	6684.29 	5.01182 	; 
	982 	8916 	: 	0 	inf 	; 
	983 	986 	: 	0 	inf 	; 
	983 	1042 	: 	1260.95 	11.8269 	; 
	984 	1040 	: 	0 	inf 	; 
	984 	1053 	: 	1922.73 	13.5485 	; 
	985 	986 	: 	0 	inf 	; 
	985 	1040 	: 	1922.73 	22.9316 	; 
	985 	8678 	: 	1803.48 	30.0252 	; 
	986 	983 	: 	1260.95 	28.1991 	; 
	986 	985 	: 	3724.15 	20.2726 	; 
	986 	1090 	: 	0 	inf 	; 
	987 	988 	: 	0 	inf 	; 
	987 	1057 	: 	52 	9.10336 	; 
	988 	987 	: 	52 	1.92847 	; 
	988 	989 	: 	0 	inf 	; 
	989 	988 	: 	52 	2.76292 	; 
	989 	990 	: 	0 	inf 	; 
	990 	989 	: 	52 	6.87778 	; 
	990 	6877 	: 	0 	inf 	; 
	991 	1000 	: 	1660.58 	10.8885 	; 
	991 	8677 	: 	0 	inf 	; 
	992 	993 	: 	0 	inf 	; 
	992 	8677 	: 	1044.4 	4.76732 	; 
	993 	992 	: 	1044.4 	1.28281 	; 
	993 	1010 	: 	0 	inf 	; 
	994 	995 	: 	0 	inf 	; 
	994 	1008 	: 	345.8 	8.32404 	; 
	995 	994 	: 	345.8 	25.2925 	; 
	995 	5273 	: 	76.7 	3.05979 	; 
	995 	6753 	: 	3415.79 	11.4238 	; 
	996 	1003 	: 	317.3 	11.4147 	; 
	996 	1071 	: 	0 	inf 	; 
	996 	5275 	: 	278.133 	15.8275 	; 
	997 	976 	: 	247.6 	6.93678 	; 
	997 	998 	: 	0 	inf 	; 
	997 	4841 	: 	1826.65 	17.1419 	; 
	998 	997 	: 	2074.25 	24.4044 	; 
	998 	999 	: 	0 	inf 	; 
	998 	10354 	: 	4852.51 	14.9471 	; 
	999 	998 	: 	6926.76 	1.80244 	; 
	999 	1073 	: 	0 	inf 	; 
	1000 	991 	: 	0 	inf 	; 
	1000 	1001 	: 	0 	inf 	; 
	1000 	1073 	: 	2847.04 	10.6779 	; 
	1001 	1000 	: 	1186.47 	9.28799 	; 
	1001 	1002 	: 	0 	inf 	; 
	1002 	1001 	: 	1186.47 	6.1182 	; 
	1002 	1003 	: 	0 	inf 	; 
	1003 	996 	: 	0 	inf 	; 
	1003 	1002 	: 	1186.47 	10.2775 	; 
	1003 	1011 	: 	0 	inf 	; 
	1004 	1005 	: 	0 	inf 	; 
	1004 	1075 	: 	3542.02 	2.06278 	; 
	1005 	1004 	: 	3542.02 	2.52525 	; 
	1005 	1006 	: 	0 	inf 	; 
	1006 	1005 	: 	3542.02 	2.49824 	; 
	1006 	1007 	: 	0 	inf 	; 
	1007 	1006 	: 	3542.02 	1.83113 	; 
	1007 	1008 	: 	0 	inf 	; 
	1007 	7756 	: 	0 	inf 	; 
	1008 	994 	: 	0 	inf 	; 
	1008 	1007 	: 	2211.87 	9.54516 	; 
	1008 	1009 	: 	0 	inf 	; 
	1009 	1008 	: 	1866.07 	4.49377 	; 
	1009 	1010 	: 	0 	inf 	; 
	1010 	993 	: 	1044.4 	9.19228 	; 
	1010 	1009 	: 	1866.07 	4.17356 	; 
	1010 	1011 	: 	0 	inf 	; 
	1011 	1003 	: 	869.167 	13.1148 	; 
	1011 	1010 	: 	2910.47 	5.13028 	; 
	1011 	1012 	: 	0 	inf 	; 
	1012 	1011 	: 	3779.63 	4.39015 	; 
	1012 	1013 	: 	0 	inf 	; 
	1013 	1012 	: 	3779.63 	4.5779 	; 
	1013 	1015 	: 	0 	inf 	; 
	1014 	1015 	: 	0 	inf 	; 
	1014 	1025 	: 	2904.65 	5.63479 	; 
	1015 	1013 	: 	3779.63 	10.2541 	; 
	1015 	1014 	: 	2904.65 	9.52147 	; 
	1015 	4958 	: 	0 	inf 	; 
	1016 	1019 	: 	0 	inf 	; 
	1016 	7851 	: 	1070.53 	5.66772 	; 
	1017 	1018 	: 	0 	inf 	; 
	1017 	7603 	: 	0 	7.86341 	; 
	1017 	7732 	: 	0 	0.688647 	; 
	1018 	1017 	: 	0 	3.76082 	; 
	1018 	1019 	: 	0 	inf 	; 
	1019 	1016 	: 	1070.53 	8.02563 	; 
	1019 	1018 	: 	0 	9.36248 	; 
	1019 	1020 	: 	0 	inf 	; 
	1020 	974 	: 	0 	inf 	; 
	1020 	1019 	: 	1070.53 	10.1805 	; 
	1020 	1021 	: 	0 	inf 	; 
	1021 	1020 	: 	548.256 	14.1118 	; 
	1021 	1024 	: 	0 	inf 	; 
	1022 	1023 	: 	0 	inf 	; 
	1022 	1084 	: 	2356.4 	17.11 	; 
	1023 	1022 	: 	2356.4 	5.19903 	; 
	1023 	1024 	: 	0 	inf 	; 
	1024 	1021 	: 	548.256 	9.98465 	; 
	1024 	1023 	: 	2356.4 	7.18585 	; 
	1024 	1025 	: 	0 	inf 	; 
	1025 	1014 	: 	0 	inf 	; 
	1025 	1024 	: 	2904.65 	5.09257 	; 
	1026 	4959 	: 	0 	inf 	; 
	1026 	8660 	: 	82.6 	2.1114 	; 
	1027 	1535 	: 	7503.78 	6.15245 	; 
	1027 	8263 	: 	0 	inf 	; 
	1028 	8263 	: 	3328.22 	4.34031 	; 
	1028 	8265 	: 	0 	inf 	; 
	1029 	4959 	: 	0 	inf 	; 
	1029 	8265 	: 	3328.22 	4.55372 	; 
	1030 	4808 	: 	81.6 	2.16959 	; 
	1030 	8264 	: 	20.4 	2.19397 	; 
	1030 	8660 	: 	240.467 	4.05276 	; 
	1031 	5633 	: 	88.7 	1.17811 	; 
	1031 	5635 	: 	1890.35 	1.54916 	; 
	1031 	8264 	: 	0 	inf 	; 
	1032 	5635 	: 	88.7 	2.23204 	; 
	1032 	8268 	: 	1890.35 	1.82643 	; 
	1033 	8267 	: 	0 	inf 	; 
	1033 	8268 	: 	1183.81 	2.65163 	; 
	1034 	1037 	: 	0 	inf 	; 
	1034 	8267 	: 	1183.81 	1.66188 	; 
	1035 	1036 	: 	0 	inf 	; 
	1035 	8266 	: 	4175.57 	0.96831 	; 
	1036 	1035 	: 	4175.57 	1.9579 	; 
	1036 	1037 	: 	0 	inf 	; 
	1036 	4960 	: 	0 	inf 	; 
	1037 	1034 	: 	1183.81 	7.99673 	; 
	1037 	1036 	: 	3633.4 	10.4229 	; 
	1037 	1038 	: 	0 	inf 	; 
	1038 	1037 	: 	4817.21 	1.84729 	; 
	1038 	1039 	: 	0 	inf 	; 
	1039 	1038 	: 	4817.21 	2.25178 	; 
	1039 	1042 	: 	0 	inf 	; 
	1040 	984 	: 	1922.73 	2.99272 	; 
	1040 	985 	: 	0 	inf 	; 
	1040 	1041 	: 	0 	inf 	; 
	1041 	1040 	: 	4.26326e-14 	15.7949 	; 
	1041 	5275 	: 	2823.17 	6.98936 	; 
	1041 	8678 	: 	1101.19 	1.35059 	; 
	1042 	983 	: 	0 	inf 	; 
	1042 	1039 	: 	4817.21 	3.16228 	; 
	1042 	1044 	: 	0 	inf 	; 
	1043 	1045 	: 	0 	inf 	; 
	1043 	8678 	: 	1104.34 	12.4808 	; 
	1044 	1042 	: 	3556.26 	8.951 	; 
	1044 	1046 	: 	0 	inf 	; 
	1045 	1043 	: 	1104.34 	6.5796 	; 
	1045 	1046 	: 	0 	inf 	; 
	1046 	1044 	: 	3556.26 	2.95758 	; 
	1046 	1045 	: 	1104.34 	3.11991 	; 
	1046 	1047 	: 	0 	inf 	; 
	1047 	1046 	: 	4660.6 	1.61358 	; 
	1047 	1050 	: 	0 	inf 	; 
	1048 	1049 	: 	0 	inf 	; 
	1048 	1089 	: 	2529.5 	20.556 	; 
	1049 	1048 	: 	2529.5 	2.51476 	; 
	1049 	1051 	: 	0 	inf 	; 
[...]
	10301 	10302 	: 	450.667 	48.7378 	; 
	10302 	3132 	: 	469.533 	0.836691 	; 
	10302 	6132 	: 	0 	inf 	; 
	10302 	6318 	: 	2315.94 	36.3053 	; 
	10302 	10301 	: 	222.6 	48.4559 	; 
	10303 	6028 	: 	839 	57.8939 	; 
	10303 	6364 	: 	6 	36.6746 	; 
	10303 	6758 	: 	62 	52.1686 	; 
	10304 	3036 	: 	8 	27.2631 	; 
	10304 	7147 	: 	0 	64.6644 	; 
	10304 	7170 	: 	5.6 	56.0232 	; 
	10304 	10299 	: 	0 	inf 	; 
	10304 	10300 	: 	0 	65.8863 	; 
	10305 	9718 	: 	4202.3 	9290.21 	; 
	10306 	1794 	: 	3866.67 	6649.24 	; 
	10307 	4292 	: 	493.798 	31.6304 	; 
	10307 	9779 	: 	450.313 	1.55155 	; 
	10308 	6623 	: 	0 	37.4936 	; 
	10309 	5736 	: 	533.708 	28.6012 	; 
	10309 	7335 	: 	105.6 	18.4499 	; 
	10310 	6295 	: 	208.4 	24.5055 	; 
	10310 	10311 	: 	95.6 	2.42254 	; 
	10311 	6771 	: 	95.6 	8.88036 	; 
	10311 	10310 	: 	208.4 	2.4232 	; 
	10312 	6696 	: 	7.46667 	22.3485 	; 
	10312 	6763 	: 	99.8667 	94.9096 	; 
	10312 	10313 	: 	534.935 	37.8214 	; 
	10313 	3703 	: 	534.935 	10.2391 	; 
	10313 	3704 	: 	0 	inf 	; 
	10313 	10312 	: 	107.333 	37.3632 	; 
	10314 	3705 	: 	0 	inf 	; 
	10314 	3706 	: 	743.726 	4.56815 	; 
	10314 	10315 	: 	390.14 	9.53277 	; 
	10315 	5205 	: 	390.14 	0.341819 	; 
	10315 	10314 	: 	743.726 	9.93573 	; 
	10316 	384 	: 	36 	16.4398 	; 
	10316 	8841 	: 	15.6 	249.263 	; 
	10317 	5357 	: 	0 	inf 	; 
	10317 	6021 	: 	298.6 	48.5639 	; 
	10317 	9082 	: 	659.786 	1.95939 	; 
	10318 	7268 	: 	4.26667 	16.1613 	; 
	10318 	7524 	: 	0 	48.256 	; 
	10319 	3332 	: 	431.083 	21.7405 	; 
	10319 	4424 	: 	429.2 	2.16896 	; 
	10320 	4282 	: 	0 	69.5865 	; 
	10320 	7572 	: 	0 	1.19346 	; 
	10320 	9187 	: 	1990.89 	10.1875 	; 
	10320 	9750 	: 	0 	inf 	; 
	10321 	3167 	: 	746.701 	6.65185 	; 
	10321 	5319 	: 	0 	2.98042 	; 
	10321 	5333 	: 	341.6 	29.726 	; 
	10322 	1437 	: 	73.6 	10.2828 	; 
	10322 	5341 	: 	148.2 	5.97452 	; 
	10322 	10323 	: 	0 	inf 	; 
	10323 	4879 	: 	0 	inf 	; 
	10323 	5341 	: 	341.6 	2.30353 	; 
	10323 	10322 	: 	73.6 	5.98383 	; 
	10324 	1275 	: 	3788.49 	31.9282 	; 
	10324 	5318 	: 	0 	inf 	; 
	10325 	2705 	: 	6185.88 	24.6669 	; 
	10325 	4876 	: 	0 	inf 	; 
	10325 	4877 	: 	0 	inf 	; 
	10326 	2715 	: 	75 	54.764 	; 
	10326 	7440 	: 	0 	56.1833 	; 
	10326 	8569 	: 	14 	34.3943 	; 
	10327 	6726 	: 	207.6 	22.9938 	; 
	10327 	7004 	: 	22 	31.2183 	; 
	10327 	7439 	: 	30 	35.6407 	; 
	10328 	2544 	: 	2272.93 	7.44222 	; 
	10328 	2548 	: 	641.133 	5.25012 	; 
	10329 	2545 	: 	2322.13 	6.00525 	; 
	10329 	2546 	: 	667.867 	6.13098 	; 
	10329 	2935 	: 	0 	inf 	; 
	10330 	2612 	: 	0 	inf 	; 
	10330 	10331 	: 	11300.6 	2.11095 	; 
	10331 	10141 	: 	11300.6 	10.5422 	; 
	10331 	10330 	: 	0 	inf 	; 
	10332 	2611 	: 	819.388 	12.1201 	; 
	10332 	3925 	: 	0 	inf 	; 
	10333 	1390 	: 	302.733 	17.7191 	; 
	10333 	1599 	: 	42 	33.2543 	; 
	10333 	5342 	: 	403.8 	0.816533 	; 
	10333 	10516 	: 	98.5333 	15.639 	; 
	10334 	2558 	: 	946.867 	66.9283 	; 
	10334 	2653 	: 	306 	29.0782 	; 
	10334 	2657 	: 	799.967 	30.0534 	; 
	10334 	10391 	: 	1854.56 	36.2314 	; 
	10335 	870 	: 	0 	inf 	; 
	10335 	2598 	: 	3031.45 	42.1021 	; 
	10335 	2894 	: 	303.067 	0.724337 	; 
	10335 	6060 	: 	108.6 	47.7879 	; 
	10336 	2559 	: 	295.175 	82.1413 	; 
	10336 	8300 	: 	92 	0.672615 	; 
	10337 	852 	: 	842.615 	22.5063 	; 
	10337 	2499 	: 	0 	79.9195 	; 
	10337 	3380 	: 	246.6 	17.3369 	; 
	10337 	5866 	: 	300.8 	58.7034 	; 
	10337 	7890 	: 	0 	inf 	; 
	10338 	2608 	: 	0 	inf 	; 
	10338 	5254 	: 	0 	inf 	; 
	10338 	5571 	: 	489.733 	1.3723 	; 
	10339 	1436 	: 	0 	inf 	; 
	10339 	5573 	: 	9063.83 	15.308 	; 
	10339 	9809 	: 	0 	inf 	; 
	10340 	825 	: 	9187.63 	0.846346 	; 
	10340 	8304 	: 	0 	inf 	; 
	10341 	816 	: 	10144.3 	1.26594 	; 
	10341 	817 	: 	0 	inf 	; 
	10341 	9802 	: 	48.4 	1.68734 	; 
	10342 	5583 	: 	0 	inf 	; 
	10342 	8303 	: 	11125.1 	0.718955 	; 
	10343 	810 	: 	224.133 	7.9225 	; 
	10343 	8204 	: 	2014.64 	11.2828 	; 
	10343 	8855 	: 	0 	inf 	; 
	10344 	8858 	: 	4158.43 	11.6284 	; 
	10344 	10345 	: 	0 	inf 	; 
	10345 	1174 	: 	0 	inf 	; 
	10345 	5726 	: 	0 	inf 	; 
	10345 	10344 	: 	4158.43 	10.2091 	; 
	10346 	125 	: 	0 	inf 	; 
	10346 	8862 	: 	4116.86 	0.982147 	; 
	10347 	2730 	: 	6921.98 	7.55386 	; 
	10347 	9651 	: 	0 	inf 	; 
	10348 	1856 	: 	1579.16 	5.96224 	; 
	10348 	6788 	: 	0 	35.4156 	; 
	10348 	8277 	: 	837.231 	2.40799 	; 
	10348 	8281 	: 	888.314 	4.30139 	; 
	10349 	6351 	: 	1113.51 	19.4775 	; 
	10349 	8281 	: 	890.955 	33.1101 	; 
	10350 	6093 	: 	56.6667 	6.84205 	; 
	10350 	10351 	: 	260.6 	67.1432 	; 
	10351 	6254 	: 	153.8 	96.709 	; 
	10351 	7222 	: 	960.333 	24.0472 	; 
	10351 	7557 	: 	548.067 	24.4586 	; 
	10351 	10350 	: 	56.6667 	67.0969 	; 
	10352 	6900 	: 	140.367 	23.0524 	; 
	10352 	7366 	: 	759.099 	24.7566 	; 
	10352 	7544 	: 	312.4 	10.3275 	; 
	10352 	8531 	: 	1189.9 	16.2469 	; 
	10353 	2792 	: 	152.667 	3.53394 	; 
	10353 	3201 	: 	45 	40.5717 	; 
	10353 	7733 	: 	145.6 	12.0872 	; 
	10353 	8561 	: 	20 	6.26778 	; 
	10354 	998 	: 	0 	inf 	; 
	10354 	5589 	: 	4852.51 	1.81989 	; 
	10355 	9467 	: 	0 	5.90482 	; 
	10356 	8830 	: 	0 	inf 	; 
	10356 	8831 	: 	680.133 	1.56966 	; 
	10357 	8830 	: 	901.267 	3.18838 	; 
	10357 	9603 	: 	0 	inf 	; 
	10358 	8829 	: 	0 	inf 	; 
	10358 	9603 	: 	901.267 	3.27146 	; 
	10359 	712 	: 	846.667 	10.776 	; 
	10359 	8828 	: 	0 	inf 	; 
	10360 	8328 	: 	0 	5.37046 	; 
	10361 	1159 	: 	6 	51.5489 	; 
	10361 	1648 	: 	0 	27.3483 	; 
	10361 	3665 	: 	0 	12.8926 	; 
	10361 	10362 	: 	0 	27.5085 	; 
	10362 	7040 	: 	1081.67 	24.4631 	; 
	10362 	8323 	: 	25 	20.2941 	; 
	10362 	10361 	: 	0 	27.5085 	; 
	10362 	10363 	: 	94.6 	24.9212 	; 
	10363 	5937 	: 	129.072 	47.0511 	; 
	10363 	6288 	: 	145.8 	32.5479 	; 
	10363 	6809 	: 	53.7622 	25.0968 	; 
	10363 	10362 	: 	186.435 	24.9212 	; 
	10364 	4258 	: 	98.5234 	23.7592 	; 
	10364 	6286 	: 	36 	34.2846 	; 
	10364 	6808 	: 	1.6 	37.2348 	; 
	10364 	7255 	: 	287.943 	48.124 	; 
	10365 	1494 	: 	560.482 	48.5168 	; 
	10365 	3679 	: 	1.6 	81.5505 	; 
	10365 	6583 	: 	113.333 	34.6726 	; 
	10365 	6808 	: 	64.6751 	45.7801 	; 
	10366 	9176 	: 	0 	33.4448 	; 
	10366 	10367 	: 	0 	1.86481 	; 
	10367 	10366 	: 	0 	1.86481 	; 
	10367 	10368 	: 	0 	33.2724 	; 
	10368 	464 	: 	0 	6.51572 	; 
	10368 	2288 	: 	47.6 	52.3414 	; 
	10368 	3124 	: 	245.667 	6.90904 	; 
	10368 	10367 	: 	0 	33.2724 	; 
	10369 	1854 	: 	1579.16 	34.8189 	; 
	10369 	1856 	: 	1725.55 	9.21663 	; 
	10369 	10370 	: 	0 	inf 	; 
	10370 	10369 	: 	1725.55 	34.8436 	; 
	10370 	10371 	: 	0 	inf 	; 
	10371 	8600 	: 	0 	inf 	; 
	10371 	10370 	: 	1725.55 	4.0256 	; 
	10372 	6882 	: 	0 	8.05334 	; 
	10372 	8739 	: 	159.8 	0.41196 	; 
	10373 	2409 	: 	439.24 	1.75907 	; 
	10373 	10374 	: 	0 	inf 	; 
	10374 	5495 	: 	0 	inf 	; 
	10374 	10373 	: 	439.24 	0.593201 	; 
	10375 	6130 	: 	0 	4.82389 	; 
	10375 	10376 	: 	0 	7.69813 	; 
	10376 	10375 	: 	0 	7.69813 	; 
	10376 	10380 	: 	0 	2.65641 	; 
	10377 	686 	: 	0 	89.5974 	; 
	10377 	10378 	: 	0 	inf 	; 
	10378 	10377 	: 	0 	15.4173 	; 
	10378 	10379 	: 	0 	inf 	; 
	10379 	10378 	: 	0 	4.88029 	; 
	10379 	10380 	: 	0 	inf 	; 
	10380 	8834 	: 	0 	inf 	; 
	10380 	9476 	: 	0 	5.28028 	; 
	10380 	10376 	: 	0 	2.65641 	; 
	10380 	10379 	: 	0 	2.31582 	; 
	10381 	3751 	: 	0 	inf 	; 
	10381 	5110 	: 	8165.07 	7.62897 	; 
	10382 	2322 	: 	0 	inf 	; 
	10382 	3307 	: 	8279.43 	18.7097 	; 
	10382 	8387 	: 	0 	inf 	; 
	10383 	5993 	: 	174.6 	16.3923 	; 
	10383 	7187 	: 	479.667 	42.3595 	; 
	10383 	9917 	: 	798.211 	9.56546 	; 
	10384 	865 	: 	0 	inf 	; 
	10384 	9017 	: 	76.7 	13.4796 	; 
	10384 	9090 	: 	255.8 	4.71768 	; 
	10384 	10385 	: 	490.267 	8.91723 	; 
	10385 	6228 	: 	0 	90.0842 	; 
	10385 	7880 	: 	512.267 	71.9362 	; 
	10385 	9667 	: 	602.512 	7.87614 	; 
	10385 	10384 	: 	332.5 	8.91718 	; 
	10386 	2566 	: 	538.933 	17.2353 	; 
	10386 	2571 	: 	0 	inf 	; 
	10386 	4727 	: 	0 	inf 	; 
	10386 	8207 	: 	896.333 	0.72605 	; 
	10387 	849 	: 	8599.49 	6.51072 	; 
	10387 	9811 	: 	2251.6 	15.1616 	; 
	10387 	10388 	: 	0 	inf 	; 
	10388 	9795 	: 	0 	inf 	; 
	10388 	10387 	: 	10851.1 	1.90656 	; 
	10389 	5580 	: 	0 	inf 	; 
	10389 	9575 	: 	0 	inf 	; 
	10389 	9797 	: 	10503 	14.6262 	; 
	10390 	568 	: 	1529.43 	0.640767 	; 
	10390 	569 	: 	0 	inf 	; 
	10390 	1846 	: 	0 	inf 	; 
	10390 	2605 	: 	2474.7 	14.0184 	; 
	10391 	2652 	: 	54 	34.6347 	; 
	10391 	6948 	: 	184.133 	67.3948 	; 
	10391 	7159 	: 	1838.42 	11.8289 	; 
	10391 	10334 	: 	890.1 	36.2121 	; 
	10392 	407 	: 	6492.85 	11.5415 	; 
	10392 	2526 	: 	149.2 	12.5319 	; 
	10392 	3928 	: 	0 	inf 	; 
	10393 	5125 	: 	4273.08 	8.63884 	; 
	10393 	5416 	: 	0 	inf 	; 
	10394 	8789 	: 	0 	25.3917 	; 
	10394 	10395 	: 	0 	2.52993 	; 
	10395 	1905 	: 	0 	0.80774 	; 
	10395 	10394 	: 	0 	2.52993 	; 
	10396 	3410 	: 	2602.12 	3.73739 	; 
	10396 	3418 	: 	0 	inf 	; 
	10396 	5389 	: 	1637.01 	7.36746 	; 
	10397 	2027 	: 	6635.88 	2.93681 	; 
	10397 	2028 	: 	0 	inf 	; 
	10398 	4793 	: 	905.159 	1.82268 	; 
	10398 	10399 	: 	1924.17 	1.58944 	; 
	10399 	5388 	: 	1924.17 	2.65204 	; 
	10399 	10398 	: 	905.159 	1.58705 	; 
	10400 	4369 	: 	0 	inf 	; 
	10400 	4504 	: 	494.376 	8.17241 	; 
	10400 	10402 	: 	842.22 	8.13961 	; 
	10401 	4369 	: 	1138.4 	28.7277 	; 
	10401 	10402 	: 	0 	inf 	; 
	10401 	10405 	: 	0 	inf 	; 
	10402 	4371 	: 	842.22 	22.0406 	; 
	10402 	10400 	: 	0 	inf 	; 
	10402 	10401 	: 	1024.4 	8.54495 	; 
	10403 	10215 	: 	394.776 	14.6019 	; 
	10403 	10404 	: 	99.6 	6.62511 	; 
	10403 	10496 	: 	0 	inf 	; 
	10404 	1760 	: 	99.6 	6.90377 	; 
	10404 	9034 	: 	16 	4.81166 	; 
	10404 	10403 	: 	0 	inf 	; 
	10405 	5552 	: 	0 	inf 	; 
	10405 	10401 	: 	114 	8.54858 	; 
	10406 	8683 	: 	0 	3.74367 	; 
	10406 	10407 	: 	0 	inf 	; 
	10407 	8684 	: 	0 	inf 	; 
	10407 	10406 	: 	0 	4.21609 	; 
	10408 	3303 	: 	3326.33 	7.13051 	; 
	10408 	10209 	: 	0 	inf 	; 
	10409 	4170 	: 	606.2 	4.65374 	; 
	10409 	4746 	: 	0 	inf 	; 
	10409 	10410 	: 	0 	inf 	; 
	10410 	10409 	: 	552.2 	4.11101 	; 
	10410 	10412 	: 	0 	inf 	; 
	10411 	3667 	: 	0 	inf 	; 
	10411 	10412 	: 	552.2 	5.28569 	; 
	10412 	10410 	: 	552.2 	5.02103 	; 
	10412 	10411 	: 	0 	inf 	; 
	10413 	4174 	: 	0 	inf 	; 
	10413 	10414 	: 	0 	2.65736 	; 
	10414 	4747 	: 	0 	2.36017 	; 
	10414 	10413 	: 	0 	inf 	; 
	10415 	9426 	: 	0 	inf 	; 
	10415 	9428 	: 	36.4 	11.9102 	; 
	10416 	3237 	: 	0 	inf 	; 
	10416 	8237 	: 	984.931 	2.82309 	; 
	10417 	4447 	: 	297.91 	9.72861 	; 
	10417 	5463 	: 	0 	inf 	; 
	10417 	10419 	: 	2357.04 	6.22754 	; 
	10418 	8237 	: 	1670.02 	1.81327 	; 
	10418 	10420 	: 	0 	inf 	; 
	10419 	5554 	: 	2357.04 	10.8647 	; 
	10419 	10417 	: 	0 	inf 	; 
	10420 	1833 	: 	0 	inf 	; 
	10420 	10418 	: 	1670.02 	5.87021 	; 
	10421 	4907 	: 	280.6 	0.314313 	; 
	10421 	10422 	: 	0 	inf 	; 
	10422 	4909 	: 	0 	inf 	; 
	10422 	10421 	: 	280.6 	1.10483 	; 
	10423 	10424 	: 	0 	inf 	; 
	10423 	10443 	: 	2695.13 	59.9571 	; 
	10424 	2473 	: 	0 	inf 	; 
	10424 	10423 	: 	2695.13 	1.10217 	; 
	10425 	2401 	: 	246.64 	4.10009 	; 
	10425 	10426 	: 	0 	inf 	; 
	10426 	10425 	: 	246.64 	0.738103 	; 
	10426 	10446 	: 	0 	inf 	; 
	10427 	3928 	: 	6427.85 	6.35632 	; 
	10427 	10428 	: 	0 	inf 	; 
	10428 	8364 	: 	0 	inf 	; 
	10428 	10427 	: 	6427.85 	0.74014 	; 
	10429 	4896 	: 	2.13163e-14 	8.80632 	; 
	10429 	8618 	: 	221.8 	1.41583 	; 
	10429 	8619 	: 	0 	inf 	; 
	10430 	2474 	: 	10743.7 	1.06836 	; 
	10430 	2475 	: 	0 	inf 	; 
	10431 	4891 	: 	24.9333 	8.13086 	; 
	10431 	4896 	: 	132.667 	2.23167 	; 
	10431 	10432 	: 	0 	inf 	; 
	10432 	4895 	: 	0 	inf 	; 
	10432 	10431 	: 	157.6 	1.07433 	; 
	10433 	3928 	: 	214.2 	6.02403 	; 
	10433 	4907 	: 	0 	inf 	; 
	10434 	6030 	: 	2.13333 	44.5439 	; 
	10434 	6667 	: 	64 	11.7973 	; 
	10435 	8515 	: 	10928.2 	22.21 	; 
	10435 	10436 	: 	0 	inf 	; 
	10435 	10441 	: 	0 	inf 	; 
	10436 	4899 	: 	0 	inf 	; 
	10436 	8627 	: 	0 	inf 	; 
	10436 	10435 	: 	881.492 	12.5831 	; 
	10437 	4899 	: 	642.8 	0.295502 	; 
	10437 	10438 	: 	0 	inf 	; 
	10438 	4898 	: 	0 	inf 	; 
	10438 	8630 	: 	0 	inf 	; 
	10438 	10437 	: 	642.8 	1.10901 	; 
	10439 	5991 	: 	0 	10.7884 	; 
	10439 	10440 	: 	0 	6.5599 	; 
	10440 	7473 	: 	0 	14.5062 	; 
	10440 	10439 	: 	0 	6.5599 	; 
	10441 	10435 	: 	10046.7 	13.7384 	; 
	10441 	10442 	: 	0 	inf 	; 
	10442 	4900 	: 	0 	inf 	; 
	10442 	10441 	: 	10046.7 	0.978858 	; 
	10443 	10423 	: 	0 	inf 	; 
	10443 	10444 	: 	2695.13 	1.10109 	; 
	10444 	1365 	: 	2695.13 	46.4502 	; 
	10444 	10443 	: 	0 	inf 	; 
	10445 	1366 	: 	0 	inf 	; 
	10445 	10446 	: 	246.64 	0.713526 	; 
	10446 	10426 	: 	246.64 	40.1204 	; 
	10446 	10445 	: 	0 	inf 	; 
	10447 	8016 	: 	0 	inf 	; 
	10447 	8525 	: 	5646.45 	0.739165 	; 
	10448 	4911 	: 	543.433 	2.85662 	; 
	10448 	8629 	: 	133.267 	8.81897 	; 
	10448 	10449 	: 	0 	inf 	; 
	10449 	4912 	: 	0 	inf 	; 
	10449 	10448 	: 	676.7 	1.11707 	; 
	10450 	5636 	: 	478 	0.67348 	; 
	10450 	10451 	: 	484.867 	3.87499 	; 
	10451 	10450 	: 	478 	3.87499 	; 
	10451 	10452 	: 	484.867 	1.24236 	; 
	10452 	3938 	: 	699.067 	6.23254 	; 
	10452 	8642 	: 	185.467 	3.80363 	; 
	10452 	10451 	: 	478 	1.24236 	; 
	10453 	2902 	: 	67 	5.77953 	; 
	10453 	6594 	: 	6 	46.879 	; 
	10453 	6622 	: 	0 	5.31784 	; 
	10453 	8027 	: 	0 	inf 	; 
	10454 	767 	: 	6002.7 	1.28969 	; 
	10454 	8003 	: 	0 	inf 	; 
	10455 	757 	: 	2597.65 	11.6302 	; 
	10455 	8817 	: 	0 	inf 	; 
	10456 	766 	: 	6002.7 	1.40328 	; 
	10456 	767 	: 	0 	inf 	; 
	10457 	7996 	: 	0 	inf 	; 
	10457 	8001 	: 	0 	inf 	; 
	10457 	8815 	: 	3499.65 	20.0436 	; 
	10458 	7991 	: 	1387.4 	3.53076 	; 
	10458 	10459 	: 	0 	inf 	; 
	10459 	7671 	: 	0 	inf 	; 
	10459 	10458 	: 	1387.4 	2.25861 	; 
	10460 	793 	: 	3494.25 	26.5033 	; 
	10460 	795 	: 	1449.71 	11.1204 	; 
	10460 	2250 	: 	0 	inf 	; 
	10461 	818 	: 	0 	inf 	; 
	10461 	8311 	: 	5268.05 	0.589893 	; 
	10462 	818 	: 	4748.65 	6.74731 	; 
	10462 	819 	: 	0 	inf 	; 
	10462 	9803 	: 	0 	inf 	; 
	10463 	864 	: 	486.267 	8.74783 	; 
	10463 	2272 	: 	0 	inf 	; 
	10464 	4741 	: 	0 	inf 	; 
	10464 	4742 	: 	0 	inf 	; 
	10464 	8212 	: 	2820.47 	3.48147 	; 
	10465 	10466 	: 	0 	inf 	; 
	10465 	10467 	: 	984.93 	1.40191 	; 
	10466 	7769 	: 	0 	inf 	; 
	10466 	10465 	: 	984.93 	5.2078 	; 
	10467 	617 	: 	0 	inf 	; 
	10467 	10465 	: 	0 	inf 	; 
	10467 	10469 	: 	5310 	11.8383 	; 
	10468 	9205 	: 	5310 	11.1148 	; 
	10468 	10469 	: 	0 	inf 	; 
	10469 	10467 	: 	0 	inf 	; 
	10469 	10468 	: 	5310 	1.27734 	; 
	10470 	621 	: 	0 	inf 	; 
	10470 	5231 	: 	3298.87 	6.50587 	; 
	10471 	1619 	: 	0 	inf 	; 
	10471 	1623 	: 	4374.07 	5.87071 	; 
	10471 	10472 	: 	0 	inf 	; 
	10472 	1619 	: 	124.533 	16.9546 	; 
	10472 	1622 	: 	0 	inf 	; 
	10472 	10471 	: 	3068.27 	21.6539 	; 
	10473 	192 	: 	0 	inf 	; 
	10473 	210 	: 	0 	inf 	; 
	10473 	836 	: 	4074.85 	1.3584 	; 
	10474 	3073 	: 	0 	inf 	; 
	10474 	7694 	: 	3829.48 	1.45448 	; 
	10475 	553 	: 	319.624 	2.74753 	; 
	10475 	7799 	: 	0 	inf 	; 
	10476 	2410 	: 	0 	inf 	; 
	10476 	5495 	: 	0 	8.55121 	; 
	10477 	493 	: 	6598.88 	12.6558 	; 
	10477 	4988 	: 	0 	inf 	; 
	10477 	8117 	: 	0 	inf 	; 
	10478 	2045 	: 	0 	inf 	; 
	10478 	2051 	: 	0 	5.84888 	; 
	10479 	1512 	: 	0 	inf 	; 
	10479 	1520 	: 	0 	inf 	; 
	10479 	1522 	: 	166.534 	4.0979 	; 
	10479 	1524 	: 	1702.53 	5.51475 	; 
	10480 	3353 	: 	0 	inf 	; 
	10480 	4655 	: 	397.3 	12.4908 	; 
	10481 	1833 	: 	1670.02 	0.763084 	; 
	10481 	4763 	: 	0 	inf 	; 
	10482 	4507 	: 	935.933 	55.093 	; 
	10482 	10483 	: 	0 	inf 	; 
	10483 	10482 	: 	935.933 	3.28966 	; 
	10483 	10538 	: 	0 	inf 	; 
	10484 	4454 	: 	162 	9.58175 	; 
	10484 	5255 	: 	1048.66 	9.07987 	; 
	10484 	8276 	: 	915.967 	47.2521 	; 
	10485 	35 	: 	0 	inf 	; 
	10485 	58 	: 	418.833 	3.39591 	; 
	10486 	34 	: 	418.833 	6.28962 	; 
	10486 	10527 	: 	0 	inf 	; 
	10487 	10488 	: 	0 	inf 	; 
	10487 	10489 	: 	1637.68 	1.95601 	; 
	10488 	10487 	: 	1637.68 	5.47726 	; 
	10488 	10492 	: 	0 	inf 	; 
	10489 	31 	: 	1637.68 	20.8786 	; 
	10489 	10487 	: 	0 	inf 	; 
	10490 	18 	: 	5591.48 	2.75899 	; 
	10490 	10491 	: 	0 	inf 	; 
	10491 	6 	: 	1041.65 	9.09318 	; 
	10491 	10490 	: 	5591.48 	6.08673 	; 
	10491 	10493 	: 	0 	inf 	; 
	10492 	52 	: 	97.2 	35.1273 	; 
	10492 	10488 	: 	1637.68 	22.3456 	; 
	10492 	10493 	: 	0 	inf 	; 
	10493 	4055 	: 	0 	inf 	; 
	10493 	10491 	: 	6633.12 	23.4567 	; 
	10493 	10492 	: 	1734.88 	14.6406 	; 
	10494 	1414 	: 	69.3333 	11.1767 	; 
	10494 	8242 	: 	0 	inf 	; 
	10495 	1417 	: 	609.733 	2.84038 	; 
	10495 	8498 	: 	0 	inf 	; 
	10496 	4504 	: 	0 	inf 	; 
	10496 	10403 	: 	494.376 	0.660236 	; 
	10497 	224 	: 	8966.41 	1.05723 	; 
	10497 	4767 	: 	0 	inf 	; 
	10498 	238 	: 	0 	inf 	; 
	10498 	2743 	: 	6954.28 	2.57015 	; 
	10499 	2043 	: 	2658.29 	10.9916 	; 
	10499 	10500 	: 	0 	inf 	; 
	10500 	897 	: 	0 	inf 	; 
	10500 	10499 	: 	2658.29 	0.801383 	; 
	10501 	8379 	: 	0 	inf 	; 
	10501 	10502 	: 	7052.53 	0.819993 	; 
	10502 	1534 	: 	7052.53 	8.31064 	; 
	10502 	10501 	: 	0 	inf 	; 
	10503 	5324 	: 	833.933 	12.2076 	; 
	10503 	10504 	: 	0 	inf 	; 
	10504 	1534 	: 	0 	inf 	; 
	10504 	1560 	: 	6218.6 	3.01559 	; 
	10504 	10503 	: 	833.933 	5.08058 	; 
	10505 	1560 	: 	0 	inf 	; 
	10505 	8259 	: 	5294.2 	3.90164 	; 
	10505 	8372 	: 	924.4 	6.13183 	; 
	10506 	5294 	: 	567.867 	1.53315 	; 
	10506 	10210 	: 	0 	inf 	; 
	10507 	8664 	: 	273.467 	4.97147 	; 
	10507 	8665 	: 	0 	inf 	; 
	10508 	8664 	: 	7503.78 	3.42563 	; 
	10508 	8914 	: 	0 	inf 	; 
	10509 	5223 	: 	0 	30.224 	; 
	10509 	8688 	: 	42 	19.3656 	; 
	10510 	3654 	: 	0 	inf 	; 
	10510 	8916 	: 	6629.09 	10.5866 	; 
	10511 	8914 	: 	7503.78 	9.20046 	; 
	10511 	8915 	: 	0 	inf 	; 
	10512 	2650 	: 	541.217 	19.7463 	; 
	10512 	3823 	: 	0 	inf 	; 
	10512 	8366 	: 	6464.53 	16.2971 	; 
	10513 	3324 	: 	0 	inf 	; 
	10513 	4007 	: 	1331.42 	5.32753 	; 
	10514 	3322 	: 	0 	inf 	; 
	10514 	5279 	: 	861.531 	29.2204 	; 
	10515 	1383 	: 	123.5 	4.27942 	; 
	10515 	4923 	: 	374.3 	4.5978 	; 
	10515 	5508 	: 	266.933 	4.40004 	; 
	10516 	1383 	: 	417.333 	0.729036 	; 
	10516 	1598 	: 	92.4 	24.9752 	; 
	10516 	2455 	: 	0 	inf 	; 
	10516 	10333 	: 	200.2 	15.639 	; 
	10517 	3522 	: 	250.533 	56.4903 	; 
	10517 	6434 	: 	296.333 	12.3383 	; 
	10517 	6894 	: 	176.467 	18.0292 	; 
	10517 	6960 	: 	351 	18.0243 	; 
	10518 	5596 	: 	351 	0.570183 	; 
	10518 	6960 	: 	146.133 	7.33435 	; 
	10519 	2646 	: 	2866.72 	21.1587 	; 
	10519 	2789 	: 	2641.93 	3.80879 	; 
	10519 	3392 	: 	130.933 	46.8325 	; 
	10519 	8580 	: 	123.175 	9.30538 	; 
	10520 	2643 	: 	527.775 	19.1059 	; 
	10520 	8580 	: 	76.6836 	1.4674 	; 
	10520 	8581 	: 	0 	inf 	; 
	10520 	8902 	: 	126.6 	14.3137 	; 
	10521 	1125 	: 	0 	inf 	; 
	10521 	2946 	: 	13.3333 	6.09991 	; 
	10521 	7657 	: 	0 	3.78359 	; 
	10522 	2773 	: 	0 	inf 	; 
	10522 	4649 	: 	550.725 	5.32802 	; 
	10523 	4624 	: 	2252.56 	6.96405 	; 
	10523 	4626 	: 	3621 	6.6438 	; 
	10524 	4625 	: 	3788.7 	28.1622 	; 
	10525 	32 	: 	0 	inf 	; 
	10525 	33 	: 	418.833 	1.36069 	; 
	10525 	10529 	: 	1722.07 	1.90501 	; 
	10526 	21 	: 	214.8 	11.5116 	; 
	10526 	27 	: 	0 	inf 	; 
	10527 	33 	: 	0 	inf 	; 
	10527 	10486 	: 	418.833 	7.12865 	; 
	10528 	5 	: 	615.335 	10.9366 	; 
	10528 	14 	: 	0 	inf 	; 
	10528 	3180 	: 	543.667 	6.37409 	; 
	10528 	4452 	: 	1600.83 	9.32118 	; 
	10529 	8773 	: 	1722.07 	30.2591 	; 
	10529 	10525 	: 	0 	inf 	; 
	10530 	53 	: 	875.1 	3.93432 	; 
	10530 	5247 	: 	1174 	1.73156 	; 
	10531 	53 	: 	1174 	0.887821 	; 
	10531 	54 	: 	364.067 	0.837332 	; 
	10531 	3709 	: 	0 	inf 	; 
	10531 	3710 	: 	511.033 	3.72639 	; 
	10532 	42 	: 	2777.81 	21.0829 	; 
	10532 	43 	: 	0 	inf 	; 
	10533 	68 	: 	0 	inf 	; 
	10533 	10534 	: 	2909.81 	8.5222 	; 
	10534 	43 	: 	2777.81 	4.4475 	; 
	10534 	47 	: 	132 	4.08024 	; 
	10534 	10533 	: 	0 	inf 	; 
	10535 	31 	: 	0 	inf 	; 
	10535 	57 	: 	7559.82 	9.46871 	; 
	10535 	58 	: 	0 	inf 	; 
	10536 	1 	: 	935.933 	11.4267 	; 
	10536 	69 	: 	4409.47 	7.70575 	; 
	10536 	560 	: 	0 	inf 	; 
	10537 	57 	: 	1675.23 	22.2791 	; 
	10537 	5343 	: 	0 	inf 	; 
	10538 	1 	: 	0 	inf 	; 
	10538 	10483 	: 	935.933 	4.13379 	; 
